lig_001
     RDKit          3D

 33 36  0  0  0  0  0  0  0  0999 V2000
  -25.9840    0.2990   11.1370 C   0  0  0  0  0  0  0  0  0  0  0  0
  -24.6120    0.2660   11.0210 C   0  0  0  0  0  0  0  0  0  0  0  0
  -24.0550    1.3000   10.3150 C   0  0  0  0  0  0  0  0  0  0  0  0
  -24.7700    2.2930    9.7580 N   0  0  0  0  0  0  0  0  0  0  0  0
  -26.1060    2.2650    9.9050 C   0  0  0  0  0  0  0  0  0  0  0  0
  -26.8830    3.2660    9.3360 N   0  0  0  0  0  0  0  0  0  0  0  0
  -28.3190    3.2970    9.6310 C   0  0  0  0  0  0  0  0  0  0  0  0
  -28.9340    4.4530    8.8200 C   0  0  0  0  0  0  0  0  0  0  0  0
  -27.7220    5.2330    8.4320 C   0  0  0  0  0  0  0  0  0  0  0  0
  -27.6690    6.4760    7.8220 C   0  0  0  0  0  0  0  0  0  0  0  0
  -26.4080    6.9870    7.5060 C   0  0  0  0  0  0  0  0  0  0  0  0
  -25.2380    6.2730    7.8120 C   0  0  0  0  0  0  0  0  0  0  0  0
  -25.3220    5.0160    8.4220 C   0  0  0  0  0  0  0  0  0  0  0  0
  -26.5690    4.4960    8.7320 C   0  0  0  0  0  0  0  0  0  0  0  0
  -26.7300    1.2790   10.5830 N   0  0  0  0  0  0  0  0  0  0  0  0
  -26.2750    8.5740    6.7230 S   0  0  0  0  0  0  0  0  0  0  0  0
  -26.9350    8.4810    5.4370 O   0  0  0  0  0  0  0  0  0  0  0  0
  -24.9070    9.0370    6.8210 O   0  0  0  0  0  0  0  0  0  0  0  0
  -27.2700    9.5470    7.6860 N   0  0  0  0  0  0  0  0  0  0  0  0
  -28.2330   10.3640    7.0360 C   0  0  0  0  0  0  0  0  0  0  0  0
  -29.5890   10.1610    7.2870 C   0  0  0  0  0  0  0  0  0  0  0  0
  -30.5390   10.9820    6.6770 C   0  0  0  0  0  0  0  0  0  0  0  0
  -30.1280   12.0060    5.8240 C   0  0  0  0  0  0  0  0  0  0  0  0
  -28.7700   12.2130    5.5820 C   0  0  0  0  0  0  0  0  0  0  0  0
  -27.8190   11.3920    6.1900 C   0  0  0  0  0  0  0  0  0  0  0  0
  -26.7220   -0.7910   11.8690 C   0  0  0  0  0  0  0  0  0  0  0  0
  -27.9300   -1.2820   11.0660 C   0  0  0  0  0  0  0  0  0  0  0  0
  -29.1510   -1.5870   11.9370 C   0  0  0  0  0  0  0  0  0  0  0  0
  -30.3930   -0.7830   11.5380 C   0  0  0  0  0  0  0  0  0  0  0  0
  -30.4630    0.5920   12.2080 C   0  0  0  0  0  0  0  0  0  0  0  0
  -30.6480    0.5810   13.7300 C   0  0  0  0  0  0  0  0  0  0  0  0
  -28.3950    1.7770   13.7570 C   0  0  0  0  0  0  0  0  0  0  0  0
  -29.4200    0.9810   14.5490 C   0  0  0  0  0  0  0  0  0  0  0  0
  1 26  1  0
  2  1  1  0
  3  2  2  0
  4  5  2  0
  4  3  1  0
  5 15  1  0
  6  7  1  0
  6  5  1  0
  8  7  1  0
  9 14  2  0
  9  8  1  0
 10  9  1  0
 11 12  1  0
 11 10  2  0
 12 13  2  0
 13 14  1  0
 14  6  1  0
 15  1  2  0
 16 18  2  0
 16 11  1  0
 16 19  1  0
 17 16  2  0
 20 21  2  0
 20 19  1  0
 22 21  1  0
 23 22  2  0
 24 23  1  0
 24 25  2  0
 25 20  1  0
 27 26  1  0
 27 28  1  0
 29 28  1  0
 29 30  1  0
 30 31  1  0
 31 33  1  0
 32 33  1  0
M  END
$$$$
