lig_015
     RDKit          3D

 25 26  0  0  1  0  0  0  0  0999 V2000
  -32.2190    7.1660    5.0340 C   0  0  0  0  0  0  0  0  0  0  0  0
  -31.8370    7.8290    6.3640 C   0  0  1  0  0  0  0  0  0  0  0  0
  -31.9070    9.3030    6.2600 N   0  0  0  0  0  0  0  0  0  0  0  0
  -31.1080    9.9780    7.2990 C   0  0  0  0  0  0  0  0  0  0  0  0
  -30.7400   11.4140    6.8530 C   0  0  1  0  0  0  0  0  0  0  0  0
  -29.3210   11.5040    6.3310 C   0  0  0  0  0  0  0  0  0  0  0  0
  -28.8970   12.6090    5.5740 C   0  0  0  0  0  0  0  0  0  0  0  0
  -27.5900   12.6800    5.0880 C   0  0  0  0  0  0  0  0  0  0  0  0
  -26.6920   11.6470    5.3480 C   0  0  0  0  0  0  0  0  0  0  0  0
  -27.1050   10.5450    6.0940 C   0  0  0  0  0  0  0  0  0  0  0  0
  -25.9980    9.2670    6.4140 Cl  0  0  0  0  0  0  0  0  0  0  0  0
  -28.4100   10.4690    6.5830 C   0  0  0  0  0  0  0  0  0  0  0  0
  -31.6550   11.8420    5.8340 O   0  0  0  0  0  0  0  0  0  0  0  0
  -32.7650    7.3200    7.5050 C   0  0  0  0  0  0  0  0  0  0  0  0
  -34.1300    7.1100    7.0040 N   0  0  0  0  0  0  0  0  0  0  0  0
  -34.8350    5.9730    7.4200 C   0  0  0  0  0  0  0  0  0  0  0  0
  -34.5170    4.7400    6.8350 C   0  0  0  0  0  0  0  0  0  0  0  0
  -35.1380    3.5580    7.2440 C   0  0  0  0  0  0  0  0  0  0  0  0
  -36.0720    3.5820    8.2760 C   0  0  0  0  0  0  0  0  0  0  0  0
  -36.3700    4.7870    8.9190 C   0  0  0  0  0  0  0  0  0  0  0  0
  -35.7400    5.9700    8.4900 C   0  0  0  0  0  0  0  0  0  0  0  0
  -37.3650    4.8250   10.0480 C   0  0  0  0  0  0  0  0  0  0  0  0
  -38.7010    5.3770    9.6250 C   0  0  0  0  0  0  0  0  0  0  0  0
  -39.0340    6.5510    9.6230 O   0  0  0  0  0  0  0  0  0  0  0  0
  -39.5560    4.4240    9.2010 O   0  0  0  0  0  0  0  0  0  0  0  0
  2  1  1  6
  2 14  1  0
  3  2  1  0
  3  4  1  0
  5  4  1  0
  6 12  1  0
  6  5  1  0
  7  6  2  0
  8  9  2  0
  8  7  1  0
  9 10  1  0
 10 11  1  0
 10 12  2  0
  5 13  1  6
 15 16  1  0
 15 14  1  0
 16 21  1  0
 17 18  1  0
 17 16  2  0
 18 19  2  0
 19 20  1  0
 20 22  1  0
 21 20  2  0
 23 22  1  0
 24 23  2  0
 25 23  1  0
M  END
$$$$
