lig_008
     RDKit          3D

 25 27  0  0  0  0  0  0  0  0999 V2000
   -0.5310  -20.1570   13.3990 N   0  0  0  0  0  0  0  0  0  0  0  0
   -0.2420  -19.9280   11.9600 C   0  0  0  0  0  0  0  0  0  0  0  0
   -0.2530  -18.4170   11.6370 C   0  0  0  0  0  0  0  0  0  0  0  0
    0.7780  -17.6310   12.3710 N   0  0  0  0  0  0  0  0  0  0  0  0
    1.0450  -18.2420   13.6980 C   0  0  0  0  0  0  0  0  0  0  0  0
   -0.1260  -19.0540   14.2910 C   0  0  0  0  0  0  0  0  0  0  0  0
   -1.2740  -22.4650   13.8050 C   0  0  0  0  0  0  0  0  0  0  0  0
   -0.9900  -23.8090   14.0710 C   0  0  0  0  0  0  0  0  0  0  0  0
    0.3110  -24.2070   14.3530 C   0  0  0  0  0  0  0  0  0  0  0  0
    1.3320  -23.2620   14.3530 C   0  0  0  0  0  0  0  0  0  0  0  0
    1.0540  -21.9220   14.0580 C   0  0  0  0  0  0  0  0  0  0  0  0
   -0.2510  -21.4870   13.7690 C   0  0  0  0  0  0  0  0  0  0  0  0
   -3.4350  -23.3170   13.8280 C   0  0  0  0  0  0  0  0  0  0  0  0
   -2.6000  -22.1900   13.5570 O   0  0  0  0  0  0  0  0  0  0  0  0
    0.3590  -16.2430   12.5180 C   0  0  0  0  0  0  0  0  0  0  0  0
    0.6120  -15.6240   11.2560 N   0  0  0  0  0  0  0  0  0  0  0  0
    0.1040  -14.3830   10.9580 C   0  0  0  0  0  0  0  0  0  0  0  0
   -0.6620  -13.7760   11.6990 O   0  0  0  0  0  0  0  0  0  0  0  0
    0.5040  -13.7900    9.6500 C   0  0  0  0  0  0  0  0  0  0  0  0
    0.3670  -12.4040    9.4840 C   0  0  0  0  0  0  0  0  0  0  0  0
    0.7310  -11.7960    8.2800 C   0  0  0  0  0  0  0  0  0  0  0  0
    1.2410  -12.5720    7.2410 C   0  0  0  0  0  0  0  0  0  0  0  0
    1.6900  -11.8270    5.7580 Cl  0  0  0  0  0  0  0  0  0  0  0  0
    1.3970  -13.9490    7.3990 C   0  0  0  0  0  0  0  0  0  0  0  0
    1.0330  -14.5610    8.6050 C   0  0  0  0  0  0  0  0  0  0  0  0
  1 12  1  0
  1  6  1  0
  2  1  1  0
  3  2  1  0
  3  4  1  0
  4 15  1  0
  4  5  1  0
  5  6  1  0
  7  8  2  0
  8  9  1  0
  9 10  2  0
 11 10  1  0
 12  7  1  0
 12 11  2  0
 14  7  1  0
 14 13  1  0
 16 15  1  0
 17 16  1  0
 17 18  2  0
 19 17  1  0
 20 19  1  0
 21 20  2  0
 22 24  2  0
 22 21  1  0
 23 22  1  0
 24 25  1  0
 25 19  2  0
M  END
$$$$
