lig_018
     RDKit          3D

 32 36  0  0  0  0  0  0  0  0999 V2000
   -4.4180    9.8990   15.2770 N   0  0  0  0  0  0  0  0  0  0  0  0
   -3.2400   10.6280   15.3600 C   0  0  0  0  0  0  0  0  0  0  0  0
   -2.1420   10.1800   15.6570 O   0  0  0  0  0  0  0  0  0  0  0  0
   -3.4610   11.9490   15.0060 N   0  0  0  0  0  0  0  0  0  0  0  0
   -2.5940   13.0150   15.1760 C   0  0  0  0  0  0  0  0  0  0  0  0
   -1.4730   13.0000   15.8370 N   0  0  0  0  0  0  0  0  0  0  0  0
   -0.7700   14.2220   15.8740 C   0  0  0  0  0  0  0  0  0  0  0  0
    0.3770   14.3630   16.5210 N   0  0  0  0  0  0  0  0  0  0  0  0
    0.6880   15.6690   16.3160 N   0  0  0  0  0  0  0  0  0  0  0  0
    1.9050   16.1860   16.9050 C   0  0  0  0  0  0  0  0  0  0  0  0
   -0.2350   16.3500   15.5400 C   0  0  0  0  0  0  0  0  0  0  0  0
   -1.1920   15.4140   15.2590 C   0  0  0  0  0  0  0  0  0  0  0  0
   -2.5080   15.3580   14.5120 C   0  0  0  0  0  0  0  0  0  0  0  0
   -3.2170   16.2190   13.8350 N   0  0  0  0  0  0  0  0  0  0  0  0
   -4.3050   15.4670   13.4380 C   0  0  0  0  0  0  0  0  0  0  0  0
   -4.2950   14.1790   13.8450 N   0  0  0  0  0  0  0  0  0  0  0  0
   -3.1240   14.1460   14.5270 N   0  0  0  0  0  0  0  0  0  0  0  0
   -4.9790    5.7230   15.6450 C   0  0  0  0  0  0  0  0  0  0  0  0
   -5.5410    6.4490   14.5950 C   0  0  0  0  0  0  0  0  0  0  0  0
   -5.3440    7.8290   14.4950 C   0  0  0  0  0  0  0  0  0  0  0  0
   -4.5790    8.5090   15.4500 C   0  0  0  0  0  0  0  0  0  0  0  0
   -4.0130    7.7800   16.4960 C   0  0  0  0  0  0  0  0  0  0  0  0
   -4.2120    6.3950   16.5950 C   0  0  0  0  0  0  0  0  0  0  0  0
   -6.0010    3.8650   16.7180 C   0  0  0  0  0  0  0  0  0  0  0  0
   -5.2490    4.3830   15.6260 O   0  0  0  0  0  0  0  0  0  0  0  0
   -5.4600   16.0750   12.5750 C   0  0  0  0  0  0  0  0  0  0  0  0
   -6.5380   16.7950   13.0520 C   0  0  0  0  0  0  0  0  0  0  0  0
   -7.3250   17.1460   11.9270 C   0  0  0  0  0  0  0  0  0  0  0  0
   -6.6800   16.6200   10.8340 C   0  0  0  0  0  0  0  0  0  0  0  0
   -5.5500   15.9690   11.2140 O   0  0  0  0  0  0  0  0  0  0  0  0
   -0.0220   18.0330   15.1780 S   0  0  0  0  0  0  0  0  0  0  0  0
   -0.7240   18.8730   16.6110 C   0  0  0  0  0  0  0  0  0  0  0  0
  1  2  1  0
  1 21  1  0
  2  3  2  0
  4  5  1  0
  4  2  1  0
  5  6  2  0
  6  7  1  0
  7  8  2  0
  9  8  1  0
  9 10  1  0
 11  9  1  0
 12 11  2  0
 12  7  1  0
 13 17  1  0
 13 12  1  0
 14 13  2  0
 15 14  1  0
 15 16  2  0
 16 17  1  0
 17  5  1  0
 18 23  2  0
 19 18  1  0
 20 19  2  0
 20 21  1  0
 21 22  2  0
 22 23  1  0
 25 18  1  0
 25 24  1  0
 26 27  2  0
 26 15  1  0
 28 27  1  0
 29 30  1  0
 29 28  2  0
 30 26  1  0
 31 11  1  0
 31 32  1  0
M  END
$$$$
