lig_010
     RDKit          3D

 32 34  0  0  1  0  0  0  0  0999 V2000
  -26.5930    3.1090   10.5420 C   0  0  0  0  0  0  0  0  0  0  0  0
  -25.3130    3.6150   10.7650 C   0  0  0  0  0  0  0  0  0  0  0  0
  -24.8110    4.6320    9.9500 C   0  0  0  0  0  0  0  0  0  0  0  0
  -25.5850    5.1480    8.9010 C   0  0  0  0  0  0  0  0  0  0  0  0
  -26.8700    4.6330    8.6860 C   0  0  0  0  0  0  0  0  0  0  0  0
  -27.3710    3.6180    9.5040 C   0  0  0  0  0  0  0  0  0  0  0  0
  -27.0780    2.0760   11.3900 N   0  0  0  0  0  0  0  0  0  0  0  0
  -27.3260    0.5270   10.7710 S   0  0  0  0  0  0  0  0  0  0  0  0
  -26.9780   -0.3880   11.8390 O   0  0  0  0  0  0  0  0  0  0  0  0
  -26.7080    0.4220    9.4660 O   0  0  0  0  0  0  0  0  0  0  0  0
  -31.8570    0.3400   10.1770 C   0  0  0  0  0  0  0  0  0  0  0  0
  -31.2730    1.4320   10.8270 C   0  0  0  0  0  0  0  0  0  0  0  0
  -29.8920    1.4930   11.0250 C   0  0  0  0  0  0  0  0  0  0  0  0
  -29.0910    0.4500   10.5650 C   0  0  0  0  0  0  0  0  0  0  0  0
  -29.6580   -0.6380    9.8910 C   0  0  0  0  0  0  0  0  0  0  0  0
  -31.0430   -0.6930    9.7050 C   0  0  0  0  0  0  0  0  0  0  0  0
  -33.7980    1.7110   10.1060 C   0  0  0  0  0  0  0  0  0  0  0  0
  -33.2170    0.4120   10.0540 O   0  0  0  0  0  0  0  0  0  0  0  0
  -25.0410    6.2550    8.0260 C   0  0  0  0  0  0  0  0  0  0  0  0
  -26.0930    6.8460    7.0750 C   0  0  0  0  0  0  0  0  0  0  0  0
  -26.3090    8.2800    7.3180 N   0  0  0  0  0  0  0  0  0  0  0  0
  -25.2550    9.0890    6.6790 C   0  0  0  0  0  0  0  0  0  0  0  0
  -25.8330    9.9620    5.5450 C   0  0  2  0  0  0  0  0  0  0  0  0
  -25.3880   11.3190    5.7040 O   0  0  0  0  0  0  0  0  0  0  0  0
  -27.3660    9.9280    5.5120 C   0  0  0  0  0  0  0  0  0  0  0  0
  -27.9510   10.6760    6.5760 O   0  0  0  0  0  0  0  0  0  0  0  0
  -29.2400   10.4060    6.9290 C   0  0  0  0  0  0  0  0  0  0  0  0
  -30.0000   11.5170    7.2920 C   0  0  0  0  0  0  0  0  0  0  0  0
  -31.3300   11.3580    7.6770 C   0  0  0  0  0  0  0  0  0  0  0  0
  -31.8610   10.0800    7.6880 C   0  0  0  0  0  0  0  0  0  0  0  0
  -31.1600    8.9780    7.3460 N   0  0  0  0  0  0  0  0  0  0  0  0
  -29.8680    9.1680    6.9730 C   0  0  0  0  0  0  0  0  0  0  0  0
  1  2  1  0
  1  7  1  0
  3  2  2  0
  4  3  1  0
  5  4  2  0
  5  6  1  0
  6  1  2  0
  8  7  1  0
  8  9  2  0
 10  8  2  0
 11 12  1  0
 12 13  2  0
 14  8  1  0
 14 13  1  0
 15 14  2  0
 16 15  1  0
 16 11  2  0
 18 17  1  0
 18 11  1  0
 19  4  1  0
 20 21  1  0
 20 19  1  0
 22 21  1  0
 23 25  1  0
 23 24  1  1
 23 22  1  0
 25 26  1  0
 26 27  1  0
 27 32  1  0
 27 28  2  0
 28 29  1  0
 29 30  2  0
 31 30  1  0
 32 31  2  0
M  END
$$$$
