lig_000
     RDKit          3D

 34 38  0  0  0  0  0  0  0  0999 V2000
   -3.2850  -24.8360   18.5900 O   0  0  0  0  0  0  0  0  0  0  0  0
   -3.3740  -24.0010   17.7020 C   0  0  0  0  0  0  0  0  0  0  0  0
   -2.8310  -24.1320   16.4440 N   0  0  0  0  0  0  0  0  0  0  0  0
   -4.1270  -22.7510   17.9210 C   0  0  0  0  0  0  0  0  0  0  0  0
   -5.4920  -22.7270   17.5610 C   0  0  0  0  0  0  0  0  0  0  0  0
   -6.2770  -21.5790   17.7640 C   0  0  0  0  0  0  0  0  0  0  0  0
   -5.7150  -20.4380   18.3300 C   0  0  0  0  0  0  0  0  0  0  0  0
   -4.3750  -20.4940   18.6740 C   0  0  0  0  0  0  0  0  0  0  0  0
   -3.5520  -21.6220   18.4870 C   0  0  0  0  0  0  0  0  0  0  0  0
   -2.2080  -21.2900   18.9400 C   0  0  0  0  0  0  0  0  0  0  0  0
   -1.0240  -22.0100   18.9620 C   0  0  0  0  0  0  0  0  0  0  0  0
    0.1330  -21.3960   19.4670 C   0  0  0  0  0  0  0  0  0  0  0  0
    0.1110  -20.0730   19.9410 C   0  0  0  0  0  0  0  0  0  0  0  0
   -1.0710  -19.3370   19.9200 C   0  0  0  0  0  0  0  0  0  0  0  0
   -2.1950  -19.9680   19.4200 C   0  0  0  0  0  0  0  0  0  0  0  0
   -3.5560  -19.4210   19.2710 C   0  0  0  0  0  0  0  0  0  0  0  0
   -3.9310  -18.3060   19.5680 O   0  0  0  0  0  0  0  0  0  0  0  0
   -2.0960  -25.3110   16.0410 C   0  0  0  0  0  0  0  0  0  0  0  0
   -0.7040  -24.9950   15.4950 C   0  0  0  0  0  0  0  0  0  0  0  0
   -0.2720  -23.5330   15.6750 C   0  0  0  0  0  0  0  0  0  0  0  0
   -0.4050  -22.6980   14.4680 N   0  0  0  0  0  0  0  0  0  0  0  0
   -1.1060  -21.4230   14.7500 C   0  0  0  0  0  0  0  0  0  0  0  0
   -1.2290  -20.5160   13.5020 C   0  0  0  0  0  0  0  0  0  0  0  0
    0.0910  -20.2530   12.8900 N   0  0  0  0  0  0  0  0  0  0  0  0
    0.8930  -21.4680   12.6720 C   0  0  0  0  0  0  0  0  0  0  0  0
    0.9350  -22.3900   13.9140 C   0  0  0  0  0  0  0  0  0  0  0  0
    0.6890  -19.0280   13.2040 C   0  0  0  0  0  0  0  0  0  0  0  0
    1.5730  -18.9100   14.2920 C   0  0  0  0  0  0  0  0  0  0  0  0
    2.1620  -17.6900   14.6370 C   0  0  0  0  0  0  0  0  0  0  0  0
    1.8880  -16.5500   13.8920 C   0  0  0  0  0  0  0  0  0  0  0  0
    1.0340  -16.6290   12.7910 C   0  0  0  0  0  0  0  0  0  0  0  0
    0.7600  -15.1660   11.9060 Cl  0  0  0  0  0  0  0  0  0  0  0  0
    0.4410  -17.8550   12.4390 C   0  0  0  0  0  0  0  0  0  0  0  0
   -0.5470  -17.9470   11.0030 Cl  0  0  0  0  0  0  0  0  0  0  0  0
  2  4  1  0
  2  1  2  0
  3  2  1  0
  4  9  2  0
  5  6  2  0
  5  4  1  0
  6  7  1  0
  7  8  2  0
  8 16  1  0
  9  8  1  0
  9 10  1  0
 10 11  2  0
 10 15  1  0
 11 12  1  0
 12 13  2  0
 14 13  1  0
 15 14  2  0
 16 15  1  0
 16 17  2  0
 18  3  1  0
 19 20  1  0
 19 18  1  0
 21 22  1  0
 21 20  1  0
 23 22  1  0
 24 27  1  0
 24 23  1  0
 25 24  1  0
 25 26  1  0
 26 21  1  0
 27 28  2  0
 28 29  1  0
 30 29  2  0
 31 30  1  0
 32 31  1  0
 33 31  2  0
 33 27  1  0
 34 33  1  0
M  END
$$$$
