lig_000
     RDKit          3D

 32 36  0  0  0  0  0  0  0  0999 V2000
   -1.7720   10.1840   16.0290 N   0  0  0  0  0  0  0  0  0  0  0  0
   -0.7500   11.0170   16.4160 C   0  0  0  0  0  0  0  0  0  0  0  0
   -1.0740   12.2210   15.8680 C   0  0  0  0  0  0  0  0  0  0  0  0
   -2.2760   12.0350   15.1730 C   0  0  0  0  0  0  0  0  0  0  0  0
   -2.9440   13.0430   14.4500 N   0  0  0  0  0  0  0  0  0  0  0  0
   -2.3840   14.2220   14.4970 C   0  0  0  0  0  0  0  0  0  0  0  0
   -2.9790   15.2710   13.8350 N   0  0  0  0  0  0  0  0  0  0  0  0
   -3.2050   16.5090   14.4170 C   0  0  0  0  0  0  0  0  0  0  0  0
   -2.9970   16.7660   15.6000 O   0  0  0  0  0  0  0  0  0  0  0  0
   -1.1530   14.5300   15.1300 N   0  0  0  0  0  0  0  0  0  0  0  0
   -0.4190   15.6590   14.9990 N   0  0  0  0  0  0  0  0  0  0  0  0
    0.6440   15.3670   15.7730 C   0  0  0  0  0  0  0  0  0  0  0  0
    0.6680   14.0860   16.2890 N   0  0  0  0  0  0  0  0  0  0  0  0
   -0.4480   13.5930   15.8270 C   0  0  0  0  0  0  0  0  0  0  0  0
   -2.7180   10.7880   15.2620 N   0  0  0  0  0  0  0  0  0  0  0  0
    1.7920   16.3940   16.0490 C   0  0  0  0  0  0  0  0  0  0  0  0
    2.5210   17.0680   15.0860 C   0  0  0  0  0  0  0  0  0  0  0  0
    3.4470   17.8880   15.7740 C   0  0  0  0  0  0  0  0  0  0  0  0
    3.2280   17.6660   17.1140 C   0  0  0  0  0  0  0  0  0  0  0  0
    2.2300   16.7640   17.2900 O   0  0  0  0  0  0  0  0  0  0  0  0
   -1.9100    8.7750   16.3620 C   0  0  0  0  0  0  0  0  0  0  0  0
   -0.6400    8.2210   17.0100 C   0  0  0  0  0  0  0  0  0  0  0  0
    0.4180    6.2040   18.1530 C   0  0  0  0  0  0  0  0  0  0  0  0
   -0.5580    6.6860   17.0790 C   0  0  0  0  0  0  0  0  0  0  0  0
   -1.9300    6.0390   17.2730 C   0  0  0  0  0  0  0  0  0  0  0  0
   -3.7900   17.5340   13.4610 C   0  0  0  0  0  0  0  0  0  0  0  0
   -5.2100   17.9170   13.7980 C   0  0  0  0  0  0  0  0  0  0  0  0
   -5.4760   19.1040   14.4980 C   0  0  0  0  0  0  0  0  0  0  0  0
   -6.7860   19.4470   14.8330 C   0  0  0  0  0  0  0  0  0  0  0  0
   -7.8410   18.6130   14.4690 C   0  0  0  0  0  0  0  0  0  0  0  0
   -7.5890   17.4350   13.7690 C   0  0  0  0  0  0  0  0  0  0  0  0
   -6.2800   17.0880   13.4320 C   0  0  0  0  0  0  0  0  0  0  0  0
  1 21  1  0
  1  2  1  0
  3  2  2  0
  4 15  2  0
  4  3  1  0
  5  6  2  0
  5  4  1  0
  6 10  1  0
  7  8  1  0
  7  6  1  0
  8  9  2  0
 10 14  1  0
 11 10  1  0
 11 12  2  0
 12 16  1  0
 12 13  1  0
 14  3  1  0
 14 13  2  0
 15  1  1  0
 16 20  1  0
 17 18  1  0
 17 16  2  0
 18 19  2  0
 19 20  1  0
 21 22  1  0
 22 24  1  0
 24 25  1  0
 24 23  1  0
 26 27  1  0
 26  8  1  0
 27 28  2  0
 28 29  1  0
 30 29  2  0
 31 30  1  0
 32 31  2  0
 32 27  1  0
M  END
$$$$
