lig_003
     RDKit          3D

 29 31  0  0  0  0  0  0  0  0999 V2000
  -28.9600    7.9040    7.6930 C   0  0  0  0  0  0  0  0  0  0  0  0
  -28.2840    7.1890    8.4310 O   0  0  0  0  0  0  0  0  0  0  0  0
  -30.3140    7.7250    7.4520 N   0  0  0  0  0  0  0  0  0  0  0  0
  -31.1540    8.5660    6.5790 C   0  0  0  0  0  0  0  0  0  0  0  0
  -32.5890    8.0280    6.6520 C   0  0  0  0  0  0  0  0  0  0  0  0
  -32.4320    6.8320    7.5320 C   0  0  0  0  0  0  0  0  0  0  0  0
  -33.4220    5.9380    7.9110 C   0  0  0  0  0  0  0  0  0  0  0  0
  -33.0620    4.8860    8.7600 C   0  0  0  0  0  0  0  0  0  0  0  0
  -31.7370    4.7260    9.1970 C   0  0  0  0  0  0  0  0  0  0  0  0
  -30.7540    5.6430    8.8080 C   0  0  0  0  0  0  0  0  0  0  0  0
  -31.1140    6.6930    7.9760 C   0  0  0  0  0  0  0  0  0  0  0  0
  -34.2960    3.7090    9.2550 S   0  0  0  0  0  0  0  0  0  0  0  0
  -33.6440    2.5320    9.7850 O   0  0  0  0  0  0  0  0  0  0  0  0
  -35.2500    3.6020    8.1680 O   0  0  0  0  0  0  0  0  0  0  0  0
  -35.1070    4.5220   10.4990 N   0  0  0  0  0  0  0  0  0  0  0  0
  -36.4990    4.7550   10.3410 C   0  0  0  0  0  0  0  0  0  0  0  0
  -37.4090    3.7540   10.6810 C   0  0  0  0  0  0  0  0  0  0  0  0
  -38.7750    3.9640   10.4930 C   0  0  0  0  0  0  0  0  0  0  0  0
  -39.2290    5.1710    9.9600 C   0  0  0  0  0  0  0  0  0  0  0  0
  -38.3160    6.1680    9.6130 C   0  0  0  0  0  0  0  0  0  0  0  0
  -36.9490    5.9600    9.8010 C   0  0  0  0  0  0  0  0  0  0  0  0
  -28.3310    9.0880    6.9660 C   0  0  0  0  0  0  0  0  0  0  0  0
  -26.8030    9.0840    7.0510 C   0  0  0  0  0  0  0  0  0  0  0  0
  -26.1810    9.8800    5.9040 C   0  0  0  0  0  0  0  0  0  0  0  0
  -27.1950   10.7200    5.1210 C   0  0  0  0  0  0  0  0  0  0  0  0
  -27.0740   12.2390    5.2790 C   0  0  0  0  0  0  0  0  0  0  0  0
  -28.4100   12.9310    5.5600 C   0  0  0  0  0  0  0  0  0  0  0  0
  -30.1540   12.1210    7.2410 C   0  0  0  0  0  0  0  0  0  0  0  0
  -29.5480   11.9520    5.8560 C   0  0  0  0  0  0  0  0  0  0  0  0
  1  2  2  0
  3  1  1  0
  3 11  1  0
  4  5  2  0
  4  3  1  0
  5  6  1  0
  6  7  1  0
  6 11  2  0
  7  8  2  0
  8  9  1  0
  8 12  1  0
 10  9  2  0
 11 10  1  0
 12 13  2  0
 12 15  1  0
 14 12  2  0
 16 15  1  0
 16 17  2  0
 18 17  1  0
 19 18  2  0
 20 21  2  0
 20 19  1  0
 21 16  1  0
 22 23  1  0
 22  1  1  0
 24 23  1  0
 25 26  1  0
 25 24  1  0
 26 27  1  0
 27 29  1  0
 29 28  1  0
M  END
$$$$
