lig_002
     RDKit          3D

 27 30  0  0  0  0  0  0  0  0999 V2000
   21.3500   18.6310    8.0170 O   0  0  0  0  0  0  0  0  0  0  0  0
   21.3290   17.9280    9.0250 C   0  0  0  0  0  0  0  0  0  0  0  0
   20.7050   18.3100   10.2010 N   0  0  0  0  0  0  0  0  0  0  0  0
   21.9360   16.6760    9.0940 N   0  0  0  0  0  0  0  0  0  0  0  0
   22.0270   15.8000   10.2760 C   0  0  0  0  0  0  0  0  0  0  0  0
   22.8840   14.5870    9.9040 C   0  0  0  0  0  0  0  0  0  0  0  0
   23.1360   14.8140    8.4490 C   0  0  0  0  0  0  0  0  0  0  0  0
   23.8280   13.9970    7.5650 C   0  0  0  0  0  0  0  0  0  0  0  0
   24.5100   12.5040    8.0780 Cl  0  0  0  0  0  0  0  0  0  0  0  0
   23.9740   14.4020    6.2390 C   0  0  0  0  0  0  0  0  0  0  0  0
   23.4280   15.6190    5.8120 C   0  0  0  0  0  0  0  0  0  0  0  0
   22.7340   16.4400    6.7070 C   0  0  0  0  0  0  0  0  0  0  0  0
   22.5930   16.0280    8.0230 C   0  0  0  0  0  0  0  0  0  0  0  0
   20.0720   19.5430   10.4810 C   0  0  0  0  0  0  0  0  0  0  0  0
   18.9130   20.0010    9.8640 C   0  0  0  0  0  0  0  0  0  0  0  0
   18.3810   21.2430   10.2220 C   0  0  0  0  0  0  0  0  0  0  0  0
   19.0300   21.9920   11.1880 C   0  0  0  0  0  0  0  0  0  0  0  0
   20.1610   21.5940   11.8030 N   0  0  0  0  0  0  0  0  0  0  0  0
   20.6480   20.3830   11.4360 C   0  0  0  0  0  0  0  0  0  0  0  0
   18.4700   23.2130   11.4950 O   0  0  0  0  0  0  0  0  0  0  0  0
   17.1300   23.1040   11.9850 C   0  0  0  0  0  0  0  0  0  0  0  0
   17.1440   23.1800   13.4970 C   0  0  0  0  0  0  0  0  0  0  0  0
   16.0400   22.7480   14.2320 C   0  0  0  0  0  0  0  0  0  0  0  0
   16.0730   22.8470   15.6200 C   0  0  0  0  0  0  0  0  0  0  0  0
   17.1980   23.3770   16.2390 C   0  0  0  0  0  0  0  0  0  0  0  0
   18.2480   23.7900   15.4390 C   0  0  0  0  0  0  0  0  0  0  0  0
   18.2450   23.7090   14.0900 N   0  0  0  0  0  0  0  0  0  0  0  0
  1  2  2  0
  2  4  1  0
  2  3  1  0
  3 14  1  0
  4  5  1  0
  6  5  2  0
  7  6  1  0
  8  9  1  0
  8  7  2  0
 10  8  1  0
 11 10  2  0
 11 12  1  0
 12 13  2  0
 13  7  1  0
 13  4  1  0
 14 19  2  0
 15 16  2  0
 15 14  1  0
 16 17  1  0
 17 20  1  0
 17 18  2  0
 19 18  1  0
 20 21  1  0
 21 22  1  0
 22 27  1  0
 22 23  2  0
 23 24  1  0
 24 25  2  0
 26 25  1  0
 27 26  2  0
M  END
$$$$
