lig_004
     RDKit          3D

 30 33  0  0  0  0  0  0  0  0999 V2000
    2.0310  -19.4430   12.3940 C   0  0  0  0  0  0  0  0  0  0  0  0
    1.5520  -20.8890   12.5540 C   0  0  0  0  0  0  0  0  0  0  0  0
    0.3610  -21.2360   11.6540 C   0  0  0  0  0  0  0  0  0  0  0  0
   -1.0120  -21.1580   12.3330 C   0  0  0  0  0  0  0  0  0  0  0  0
   -0.8560  -20.3130   15.1620 O   0  0  0  0  0  0  0  0  0  0  0  0
   -1.0120  -21.4640   14.8000 C   0  0  0  0  0  0  0  0  0  0  0  0
   -1.1580  -22.5980   15.7100 C   0  0  0  0  0  0  0  0  0  0  0  0
   -1.1470  -22.6470   17.0900 C   0  0  0  0  0  0  0  0  0  0  0  0
   -1.3160  -23.9000   17.6870 C   0  0  0  0  0  0  0  0  0  0  0  0
   -1.4930  -25.0580   16.9000 C   0  0  0  0  0  0  0  0  0  0  0  0
   -1.5020  -24.9810   15.5040 C   0  0  0  0  0  0  0  0  0  0  0  0
   -1.3310  -23.7330   14.9390 C   0  0  0  0  0  0  0  0  0  0  0  0
   -1.2970  -23.3240   13.5360 C   0  0  0  0  0  0  0  0  0  0  0  0
   -1.4390  -24.0890   12.6010 O   0  0  0  0  0  0  0  0  0  0  0  0
   -1.0950  -21.9710   13.5310 N   0  0  0  0  0  0  0  0  0  0  0  0
    1.7590  -18.6300   13.6700 C   0  0  0  0  0  0  0  0  0  0  0  0
    0.8890  -17.4600   13.5270 N   0  0  0  0  0  0  0  0  0  0  0  0
    1.5890  -16.1630   13.5410 C   0  0  0  0  0  0  0  0  0  0  0  0
    1.7030  -15.4450   12.1730 C   0  0  0  0  0  0  0  0  0  0  0  0
    0.3880  -15.3080   11.5070 N   0  0  0  0  0  0  0  0  0  0  0  0
   -0.6680  -16.2150   11.9940 C   0  0  0  0  0  0  0  0  0  0  0  0
   -0.0550  -17.5760   12.3960 C   0  0  0  0  0  0  0  0  0  0  0  0
    0.0650  -14.0640   10.9550 C   0  0  0  0  0  0  0  0  0  0  0  0
   -0.8300  -13.2040   11.6230 C   0  0  0  0  0  0  0  0  0  0  0  0
   -1.1650  -11.9420   11.1230 C   0  0  0  0  0  0  0  0  0  0  0  0
   -0.6180  -11.5030    9.9270 C   0  0  0  0  0  0  0  0  0  0  0  0
    0.2560  -12.3290    9.2210 C   0  0  0  0  0  0  0  0  0  0  0  0
    0.8800  -11.7080    7.7270 Cl  0  0  0  0  0  0  0  0  0  0  0  0
    0.5960  -13.6020    9.7190 C   0  0  0  0  0  0  0  0  0  0  0  0
    1.6100  -14.6420    8.7500 Cl  0  0  0  0  0  0  0  0  0  0  0  0
  1  2  1  0
  1 16  1  0
  3  4  1  0
  3  2  1  0
  4 15  1  0
  6  5  2  0
  6  7  1  0
  7  8  2  0
  8  9  1  0
 10  9  2  0
 11 10  1  0
 12 11  2  0
 12  7  1  0
 13 12  1  0
 14 13  2  0
 15 13  1  0
 15  6  1  0
 17 18  1  0
 17 16  1  0
 19 18  1  0
 20 21  1  0
 20 19  1  0
 21 22  1  0
 22 17  1  0
 23 20  1  0
 23 24  2  0
 25 24  1  0
 26 25  2  0
 27 29  2  0
 27 26  1  0
 28 27  1  0
 29 23  1  0
 30 29  1  0
M  END
$$$$
