lig_002
     RDKit          3D

 22 24  0  0  0  0  0  0  0  0999 V2000
  178.9660  171.9260  139.0840 C   0  0  0  0  0  0  0  0  0  0  0  0
  179.4080  172.7590  140.0390 C   0  0  0  0  0  0  0  0  0  0  0  0
  179.1740  174.2090  140.1450 C   0  0  0  0  0  0  0  0  0  0  0  0
  180.2570  175.0050  140.5570 C   0  0  0  0  0  0  0  0  0  0  0  0
  180.1080  176.3830  140.7310 C   0  0  0  0  0  0  0  0  0  0  0  0
  178.8730  176.9810  140.5070 C   0  0  0  0  0  0  0  0  0  0  0  0
  177.7860  176.2030  140.1110 C   0  0  0  0  0  0  0  0  0  0  0  0
  177.9260  174.8190  139.9260 C   0  0  0  0  0  0  0  0  0  0  0  0
  176.4680  173.9030  139.4340 S   0  0  0  0  0  0  0  0  0  0  0  0
  177.0830  173.1770  137.9180 C   0  0  0  0  0  0  0  0  0  0  0  0
  176.3860  173.4730  136.7360 C   0  0  0  0  0  0  0  0  0  0  0  0
  176.7990  172.9400  135.5150 C   0  0  0  0  0  0  0  0  0  0  0  0
  177.9080  172.1050  135.4700 C   0  0  0  0  0  0  0  0  0  0  0  0
  178.4190  171.4410  133.9670 Cl  0  0  0  0  0  0  0  0  0  0  0  0
  178.6060  171.7950  136.6360 C   0  0  0  0  0  0  0  0  0  0  0  0
  178.2050  172.3260  137.8780 C   0  0  0  0  0  0  0  0  0  0  0  0
  179.3480  170.5900  139.1340 O   0  0  0  0  0  0  0  0  0  0  0  0
  178.2300  169.7530  139.4790 C   0  0  0  0  0  0  0  0  0  0  0  0
  178.2000  168.5720  138.4950 C   0  0  0  0  0  0  0  0  0  0  0  0
  180.0350  167.4110  139.5970 C   0  0  0  0  0  0  0  0  0  0  0  0
  179.4970  167.8900  138.3230 N   0  0  0  0  0  0  0  0  0  0  0  0
  179.3470  166.7640  137.3960 C   0  0  0  0  0  0  0  0  0  0  0  0
  1 17  1  0
  1  2  2  0
  2  3  1  0
  3  4  2  0
  4  5  1  0
  6  5  2  0
  7  6  1  0
  8  7  2  0
  8  3  1  0
  9  8  1  0
 10  9  1  0
 11 10  1  0
 12 11  2  0
 13 12  1  0
 13 15  2  0
 14 13  1  0
 15 16  1  0
 16 10  2  0
 16  1  1  0
 17 18  1  0
 19 18  1  0
 21 19  1  0
 21 20  1  0
 22 21  1  0
M  END
$$$$
