lig_138
     RDKit          3D

 32 35  0  0  0  0  0  0  0  0999 V2000
   20.8380   19.0340    8.9790 C   0  0  0  0  0  0  0  0  0  0  0  0
   21.2220   18.4300   10.0650 N   0  0  0  0  0  0  0  0  0  0  0  0
   20.4420   18.7080   11.1450 C   0  0  0  0  0  0  0  0  0  0  0  0
   20.7760   18.0210   12.6680 S   0  0  0  0  0  0  0  0  0  0  0  0
   19.4470   18.8190   13.3850 C   0  0  0  0  0  0  0  0  0  0  0  0
   18.7390   19.6070   12.4920 C   0  0  0  0  0  0  0  0  0  0  0  0
   19.3340   19.5340   11.1830 C   0  0  0  0  0  0  0  0  0  0  0  0
   18.9490   20.1920    9.9460 C   0  0  0  0  0  0  0  0  0  0  0  0
   18.0020   20.9630    9.8340 O   0  0  0  0  0  0  0  0  0  0  0  0
   19.7560   19.8790    8.8810 N   0  0  0  0  0  0  0  0  0  0  0  0
   21.6760   17.5320    7.2620 N   0  0  0  0  0  0  0  0  0  0  0  0
   21.6010   18.8380    7.6750 C   0  0  0  0  0  0  0  0  0  0  0  0
   22.0810   19.8150    7.1190 O   0  0  0  0  0  0  0  0  0  0  0  0
   22.5030   17.1190    6.1580 C   0  0  0  0  0  0  0  0  0  0  0  0
   24.0210   14.2150    8.1050 C   0  0  0  0  0  0  0  0  0  0  0  0
   24.4400   13.3860    7.0620 C   0  0  0  0  0  0  0  0  0  0  0  0
   24.2390   13.7590    5.7320 C   0  0  0  0  0  0  0  0  0  0  0  0
   23.6180   14.9700    5.4360 C   0  0  0  0  0  0  0  0  0  0  0  0
   23.2010   15.8200    6.4690 C   0  0  0  0  0  0  0  0  0  0  0  0
   23.4010   15.4290    7.8050 C   0  0  0  0  0  0  0  0  0  0  0  0
   25.5040   13.0420    9.5470 C   0  0  0  0  0  0  0  0  0  0  0  0
   24.2710   13.7270    9.3580 O   0  0  0  0  0  0  0  0  0  0  0  0
   17.5160   20.4010   12.8740 C   0  0  0  0  0  0  0  0  0  0  0  0
   17.8810   21.8180   13.0470 N   0  0  0  0  0  0  0  0  0  0  0  0
   16.7440   22.6920   12.7370 C   0  0  0  0  0  0  0  0  0  0  0  0
   18.3260   22.0760   14.4300 C   0  0  0  0  0  0  0  0  0  0  0  0
   19.7460   22.5980   14.5150 C   0  0  0  0  0  0  0  0  0  0  0  0
   20.2110   23.2190   15.6830 C   0  0  0  0  0  0  0  0  0  0  0  0
   21.5150   23.7120   15.7520 C   0  0  0  0  0  0  0  0  0  0  0  0
   22.3660   23.5940   14.6550 C   0  0  0  0  0  0  0  0  0  0  0  0
   21.9150   22.9860   13.4860 C   0  0  0  0  0  0  0  0  0  0  0  0
   20.6110   22.4930   13.4140 C   0  0  0  0  0  0  0  0  0  0  0  0
  1  2  2  0
  2  3  1  0
  3  7  2  0
  3  4  1  0
  4  5  1  0
  6 23  1  0
  6  5  2  0
  7  6  1  0
  8  7  1  0
  9  8  2  0
 10  1  1  0
 10  8  1  0
 11 12  1  0
 12  1  1  0
 13 12  2  0
 14 19  1  0
 14 11  1  0
 15 22  1  0
 16 15  2  0
 17 16  1  0
 18 17  2  0
 18 19  1  0
 19 20  2  0
 20 15  1  0
 22 21  1  0
 23 24  1  0
 24 26  1  0
 25 24  1  0
 26 27  1  0
 27 28  2  0
 28 29  1  0
 30 29  2  0
 31 30  1  0
 32 31  2  0
 32 27  1  0
M  END
$$$$
