lig_017
     RDKit          3D

 34 40  0  0  1  0  0  0  0  0999 V2000
    2.8940  -26.0410   69.1480 O   0  0  0  0  0  0  0  0  0  0  0  0
    3.4450  -26.1460   68.0480 C   0  0  0  0  0  0  0  0  0  0  0  0
    3.9740  -24.9080   67.3600 C   0  0  0  0  0  0  0  0  0  0  0  0
    5.3340  -25.1710   66.7230 C   0  0  0  0  0  0  0  0  0  0  0  0
    5.2300  -26.2940   65.6710 C   0  0  1  0  0  0  0  0  0  0  0  0
    6.6180  -26.6990   65.0180 C   0  0  1  0  0  0  0  0  0  0  0  0
    7.6520  -27.1860   66.0950 C   0  0  0  0  0  0  0  0  0  0  0  0
    7.0670  -28.0410   67.1870 C   0  0  0  0  0  0  0  0  0  0  0  0
    7.8110  -28.6660   68.1890 C   0  0  0  0  0  0  0  0  0  0  0  0
    7.1590  -29.3490   69.2410 C   0  0  0  0  0  0  0  0  0  0  0  0
    5.7610  -29.3780   69.3190 C   0  0  0  0  0  0  0  0  0  0  0  0
    5.0380  -28.7430   68.3370 C   0  0  0  0  0  0  0  0  0  0  0  0
    5.6910  -28.1410   67.2810 C   0  0  0  0  0  0  0  0  0  0  0  0
    4.7020  -27.5940   66.3130 C   0  0  2  0  0  0  0  0  0  0  0  0
    4.4380  -28.6510   65.2120 C   0  0  0  0  0  0  0  0  0  0  0  0
    5.6680  -28.8980   64.3240 C   0  0  0  0  0  0  0  0  0  0  0  0
    6.3480  -27.6680   63.9310 N   0  0  0  0  0  0  0  0  0  0  0  0
    3.5220  -27.4850   67.2890 C   0  0  1  0  0  0  0  0  0  0  0  0
    3.6760  -28.5730   68.2580 O   0  0  0  0  0  0  0  0  0  0  0  0
    5.1180  -29.9970   70.3460 O   0  0  0  0  0  0  0  0  0  0  0  0
    4.2270  -25.9010   64.7010 O   0  0  0  0  0  0  0  0  0  0  0  0
    4.3920  -24.6450   64.0510 C   0  0  0  0  0  0  0  0  0  0  0  0
    4.4550  -24.8820   62.5450 C   0  0  0  0  0  0  0  0  0  0  0  0
    5.8640  -24.6450   61.9940 C   0  0  0  0  0  0  0  0  0  0  0  0
    6.0840  -25.3900   60.7000 C   0  0  0  0  0  0  0  0  0  0  0  0
    7.3790  -25.5690   60.1970 C   0  0  0  0  0  0  0  0  0  0  0  0
    7.5860  -26.2720   59.0100 C   0  0  0  0  0  0  0  0  0  0  0  0
    6.5010  -26.8060   58.3170 C   0  0  0  0  0  0  0  0  0  0  0  0
    5.2090  -26.6390   58.8120 C   0  0  0  0  0  0  0  0  0  0  0  0
    5.0000  -25.9350   59.9990 C   0  0  0  0  0  0  0  0  0  0  0  0
    7.3640  -27.8090   62.8950 C   0  0  0  0  0  0  0  0  0  0  0  0
    7.4150  -29.1360   62.1990 C   0  0  0  0  0  0  0  0  0  0  0  0
    8.4590  -29.3770   61.1360 C   0  0  0  0  0  0  0  0  0  0  0  0
    7.0120  -29.2730   60.7500 C   0  0  0  0  0  0  0  0  0  0  0  0
  2  1  2  0
  3  2  1  0
  4  3  1  0
  5 21  1  6
  5 14  1  0
  5  4  1  0
  6  5  1  0
  6  7  1  1
  7  8  1  0
  8 13  2  0
  8  9  1  0
  9 10  2  0
 10 11  1  0
 11 20  1  0
 12 11  2  0
 13 12  1  0
 14 15  1  6
 14 13  1  0
 14 18  1  0
 16 15  1  0
 17 16  1  0
 17  6  1  0
 18  2  1  0
 18 19  1  1
 19 12  1  0
 22 21  1  0
 23 22  1  0
 24 23  1  0
 25 24  1  0
 26 25  2  0
 27 26  1  0
 28 29  1  0
 28 27  2  0
 29 30  2  0
 30 25  1  0
 31 17  1  0
 32 31  1  0
 33 32  1  0
 34 33  1  0
 34 32  1  0
M  END
$$$$
