lig_301
     RDKit          3D

 34 37  0  0  1  0  0  0  0  0999 V2000
    1.5070  -18.3600   13.6400 C   0  0  0  0  0  0  0  0  0  0  0  0
    0.6590  -15.3260   10.9590 N   0  0  0  0  0  0  0  0  0  0  0  0
    1.8700  -15.5150   11.7790 C   0  0  0  0  0  0  0  0  0  0  0  0
    1.5270  -15.9510   13.2200 C   0  0  0  0  0  0  0  0  0  0  0  0
    0.6860  -17.1710   13.3390 N   0  0  0  0  0  0  0  0  0  0  0  0
   -0.1330  -17.3710   12.1170 C   0  0  0  0  0  0  0  0  0  0  0  0
   -0.5390  -16.0600   11.4060 C   0  0  0  0  0  0  0  0  0  0  0  0
   -0.8490  -11.9640   10.5610 C   0  0  0  0  0  0  0  0  0  0  0  0
   -0.3720  -11.5720    9.3090 C   0  0  0  0  0  0  0  0  0  0  0  0
    0.5010  -12.3990    8.6010 C   0  0  0  0  0  0  0  0  0  0  0  0
    1.0210  -11.8660    7.0390 Cl  0  0  0  0  0  0  0  0  0  0  0  0
    0.9220  -13.6270    9.1440 C   0  0  0  0  0  0  0  0  0  0  0  0
    0.4000  -14.0810   10.3740 C   0  0  0  0  0  0  0  0  0  0  0  0
   -0.4650  -13.2150   11.0710 C   0  0  0  0  0  0  0  0  0  0  0  0
   -2.8090  -10.4060   10.4100 C   0  0  0  0  0  0  0  0  0  0  0  0
   -1.8060  -11.0890   11.3280 C   0  0  0  0  0  0  0  0  0  0  0  0
    1.8280  -14.4010    8.4520 O   0  0  0  0  0  0  0  0  0  0  0  0
    1.1480  -15.2330    7.5100 C   0  0  0  0  0  0  0  0  0  0  0  0
    1.2910  -19.5680   12.7090 C   0  0  1  0  0  0  0  0  0  0  0  0
    2.3630  -19.6160   11.8600 F   0  0  0  0  0  0  0  0  0  0  0  0
    1.2220  -20.8940   13.4680 C   0  0  0  0  0  0  0  0  0  0  0  0
    0.3820  -21.9530   12.7540 C   0  0  0  0  0  0  0  0  0  0  0  0
   -0.6320  -22.5440   13.5930 N   0  0  0  0  0  0  0  0  0  0  0  0
   -0.3970  -23.6520   14.3830 C   0  0  0  0  0  0  0  0  0  0  0  0
    0.6650  -24.2700   14.3520 O   0  0  0  0  0  0  0  0  0  0  0  0
   -1.5080  -24.0110   15.2380 C   0  0  0  0  0  0  0  0  0  0  0  0
   -1.7420  -25.1490   15.9880 C   0  0  0  0  0  0  0  0  0  0  0  0
   -2.9900  -24.9670   16.6360 C   0  0  0  0  0  0  0  0  0  0  0  0
   -3.7850  -25.7220   17.5170 C   0  0  0  0  0  0  0  0  0  0  0  0
   -5.0030  -25.1810   17.9550 C   0  0  0  0  0  0  0  0  0  0  0  0
   -5.4260  -23.9180   17.5310 C   0  0  0  0  0  0  0  0  0  0  0  0
   -4.6490  -23.1520   16.6550 C   0  0  0  0  0  0  0  0  0  0  0  0
   -3.4450  -23.7160   16.2370 C   0  0  0  0  0  0  0  0  0  0  0  0
   -2.5520  -23.1330   15.3910 O   0  0  0  0  0  0  0  0  0  0  0  0
  2  7  1  0
  2  3  1  0
  3  4  1  0
  4  5  1  0
  5  1  1  0
  6  5  1  0
  7  6  1  0
  8 14  1  0
  8 16  1  0
  9  8  2  0
 10 12  2  0
 10  9  1  0
 11 10  1  0
 12 13  1  0
 13  2  1  0
 13 14  2  0
 15 16  1  0
 17 12  1  0
 18 17  1  0
 19 20  1  6
 19 21  1  0
 19  1  1  0
 22 21  1  0
 22 23  1  0
 23 24  1  0
 24 26  1  0
 25 24  2  0
 26 34  1  0
 26 27  2  0
 27 28  1  0
 28 29  2  0
 29 30  1  0
 31 30  2  0
 32 31  1  0
 33 28  1  0
 33 32  2  0
 34 33  1  0
M  END
$$$$
