lig_112
     RDKit          3D

 24 26  0  0  0  0  0  0  0  0999 V2000
   21.2880   19.8540   11.9120 C   0  0  0  0  0  0  0  0  0  0  0  0
   22.4200   20.2310   12.2080 O   0  0  0  0  0  0  0  0  0  0  0  0
   18.2440   22.7350   10.9070 C   0  0  0  0  0  0  0  0  0  0  0  0
   19.1760   23.0360   11.9070 C   0  0  0  0  0  0  0  0  0  0  0  0
   20.1730   22.1110   12.2450 C   0  0  0  0  0  0  0  0  0  0  0  0
   20.2430   20.8750   11.5890 C   0  0  0  0  0  0  0  0  0  0  0  0
   19.3020   20.5750   10.5950 C   0  0  0  0  0  0  0  0  0  0  0  0
   18.3050   21.4960   10.2600 C   0  0  0  0  0  0  0  0  0  0  0  0
   17.4800   24.6710    9.6310 N   0  0  0  0  0  0  0  0  0  0  0  0
   17.1640   23.6820   10.5210 C   0  0  0  0  0  0  0  0  0  0  0  0
   16.0240   23.5660   10.9520 O   0  0  0  0  0  0  0  0  0  0  0  0
   20.9070   18.3830   11.8680 C   0  0  0  0  0  0  0  0  0  0  0  0
   21.7010   17.5810   10.8340 C   0  0  0  0  0  0  0  0  0  0  0  0
   20.9650   17.4650    9.4900 C   0  0  0  0  0  0  0  0  0  0  0  0
   21.5350   16.4220    8.6190 N   0  0  0  0  0  0  0  0  0  0  0  0
   22.1290   17.0340    7.4180 C   0  0  0  0  0  0  0  0  0  0  0  0
   22.5460   15.9570    6.4080 C   0  0  0  0  0  0  0  0  0  0  0  0
   23.3760   14.8710    7.0380 C   0  0  0  0  0  0  0  0  0  0  0  0
   24.1270   14.0000    6.2370 C   0  0  0  0  0  0  0  0  0  0  0  0
   24.8720   12.9740    6.8190 C   0  0  0  0  0  0  0  0  0  0  0  0
   24.8670   12.8080    8.2030 C   0  0  0  0  0  0  0  0  0  0  0  0
   24.1130   13.6640    9.0060 C   0  0  0  0  0  0  0  0  0  0  0  0
   23.3510   14.6940    8.4320 C   0  0  0  0  0  0  0  0  0  0  0  0
   22.5690   15.6360    9.3280 C   0  0  0  0  0  0  0  0  0  0  0  0
  1  2  2  0
  3  4  1  0
  4  5  2  0
  6  1  1  0
  6  5  1  0
  7  6  2  0
  8  7  1  0
  8  3  2  0
  9 10  1  0
 10  3  1  0
 10 11  2  0
 12  1  1  0
 13 12  1  0
 14 13  1  0
 15 24  1  0
 15 14  1  0
 16 15  1  0
 17 18  1  0
 17 16  1  0
 18 23  1  0
 19 20  1  0
 19 18  2  0
 20 21  2  0
 21 22  1  0
 23 22  2  0
 23 24  1  0
M  END
$$$$
