lig_011
     RDKit          3D

 33 36  0  0  0  0  0  0  0  0999 V2000
   12.3120   -0.0630   60.4030 C   0  0  0  0  0  0  0  0  0  0  0  0
   13.4440   -0.1640   59.5760 C   0  0  0  0  0  0  0  0  0  0  0  0
   14.7180   -0.3860   60.1100 C   0  0  0  0  0  0  0  0  0  0  0  0
   14.8530   -0.4970   61.4910 C   0  0  0  0  0  0  0  0  0  0  0  0
   13.7350   -0.3920   62.3310 C   0  0  0  0  0  0  0  0  0  0  0  0
   12.4620   -0.1690   61.7990 C   0  0  0  0  0  0  0  0  0  0  0  0
   10.9960    2.7090   59.8200 C   0  0  0  0  0  0  0  0  0  0  0  0
   10.4560    1.4040   59.5110 N   0  0  0  0  0  0  0  0  0  0  0  0
    9.2390    1.3350   58.9280 N   0  0  0  0  0  0  0  0  0  0  0  0
    9.0150    0.0270   58.8120 C   0  0  0  0  0  0  0  0  0  0  0  0
   10.0710   -0.7430   59.3280 C   0  0  0  0  0  0  0  0  0  0  0  0
   11.0100    0.1710   59.7730 C   0  0  0  0  0  0  0  0  0  0  0  0
   15.7950   -0.4730   59.2010 N   0  0  0  0  0  0  0  0  0  0  0  0
   16.4410    0.5710   58.5660 C   0  0  0  0  0  0  0  0  0  0  0  0
   16.2410    1.7680   58.7270 O   0  0  0  0  0  0  0  0  0  0  0  0
   17.5200    0.1610   57.6220 C   0  0  0  0  0  0  0  0  0  0  0  0
   17.4730    0.4880   56.2620 C   0  0  0  0  0  0  0  0  0  0  0  0
   18.5100    0.0940   55.4140 C   0  0  0  0  0  0  0  0  0  0  0  0
   19.5970   -0.6180   55.9220 C   0  0  0  0  0  0  0  0  0  0  0  0
   19.6650   -0.9460   57.2850 C   0  0  0  0  0  0  0  0  0  0  0  0
   18.6220   -0.5380   58.1320 C   0  0  0  0  0  0  0  0  0  0  0  0
   20.8580   -1.6850   57.8420 C   0  0  0  0  0  0  0  0  0  0  0  0
   21.3520   -1.1200   58.9790 F   0  0  0  0  0  0  0  0  0  0  0  0
   21.8960   -1.7330   56.9630 F   0  0  0  0  0  0  0  0  0  0  0  0
   20.5790   -2.9790   58.1640 F   0  0  0  0  0  0  0  0  0  0  0  0
   11.3220   -0.0440   62.5490 O   0  0  0  0  0  0  0  0  0  0  0  0
   11.1520    1.1520   63.3140 C   0  0  0  0  0  0  0  0  0  0  0  0
   10.7520    0.7460   64.7410 C   0  0  0  0  0  0  0  0  0  0  0  0
    9.4140    0.1510   64.8250 N   0  0  0  0  0  0  0  0  0  0  0  0
    9.3470   -1.0060   65.7200 C   0  0  0  0  0  0  0  0  0  0  0  0
    7.8550   -1.1640   65.9830 C   0  0  0  0  0  0  0  0  0  0  0  0
    7.2490    0.2050   65.6970 C   0  0  0  0  0  0  0  0  0  0  0  0
    8.4340    1.0970   65.3660 C   0  0  0  0  0  0  0  0  0  0  0  0
  1  6  2  0
  2  3  2  0
  2  1  1  0
  3  4  1  0
  4  5  2  0
  6  5  1  0
  6 26  1  0
  8 12  1  0
  8  7  1  0
  9  8  1  0
 10  9  2  0
 10 11  1  0
 11 12  2  0
 12  1  1  0
 13  3  1  0
 14 15  2  0
 14 13  1  0
 16 21  2  0
 16 14  1  0
 17 16  1  0
 18 19  1  0
 18 17  2  0
 19 20  2  0
 20 22  1  0
 20 21  1  0
 22 25  1  0
 22 23  1  0
 24 22  1  0
 26 27  1  0
 27 28  1  0
 28 29  1  0
 29 33  1  0
 29 30  1  0
 30 31  1  0
 32 31  1  0
 33 32  1  0
M  END
$$$$
