lig_030
     RDKit          3D

 33 37  0  0  0  0  0  0  0  0999 V2000
    9.0120    4.8980  -11.6440 C   0  0  0  0  0  0  0  0  0  0  0  0
    8.2820    5.4120  -12.8160 N   0  0  0  0  0  0  0  0  0  0  0  0
    6.8210    5.4290  -12.6180 C   0  0  0  0  0  0  0  0  0  0  0  0
    6.1260    4.1170  -12.8490 C   0  0  0  0  0  0  0  0  0  0  0  0
    6.7060    3.0700  -13.4620 C   0  0  0  0  0  0  0  0  0  0  0  0
    8.1110    3.1800  -14.0020 C   0  0  0  0  0  0  0  0  0  0  0  0
    8.5990    4.6400  -14.0340 C   0  0  0  0  0  0  0  0  0  0  0  0
    6.0490    1.8280  -13.7120 C   0  0  0  0  0  0  0  0  0  0  0  0
    5.4190    1.0830  -12.7380 C   0  0  0  0  0  0  0  0  0  0  0  0
    4.8880   -0.0290  -13.3360 N   0  0  0  0  0  0  0  0  0  0  0  0
    5.1730   -0.0300  -14.6830 C   0  0  0  0  0  0  0  0  0  0  0  0
    4.8380   -0.9640  -15.6700 C   0  0  0  0  0  0  0  0  0  0  0  0
    5.2760   -0.7150  -16.9740 C   0  0  0  0  0  0  0  0  0  0  0  0
    6.0240    0.4220  -17.2660 C   0  0  0  0  0  0  0  0  0  0  0  0
    6.5570    0.6940  -18.8820 Cl  0  0  0  0  0  0  0  0  0  0  0  0
    6.3520    1.3490  -16.2720 C   0  0  0  0  0  0  0  0  0  0  0  0
    5.9110    1.1270  -14.9500 C   0  0  0  0  0  0  0  0  0  0  0  0
    9.5950    5.9940  -10.7390 C   0  0  0  0  0  0  0  0  0  0  0  0
    9.1780    5.9110   -9.2700 C   0  0  0  0  0  0  0  0  0  0  0  0
   10.2750    6.3450   -8.3980 N   0  0  0  0  0  0  0  0  0  0  0  0
   12.0360    7.9050   -9.3470 O   0  0  0  0  0  0  0  0  0  0  0  0
   10.8420    7.9230   -8.5320 S   0  0  0  0  0  0  0  0  0  0  0  0
    9.7010    8.7450   -8.8680 O   0  0  0  0  0  0  0  0  0  0  0  0
   11.3120    8.3080   -6.8630 C   0  0  0  0  0  0  0  0  0  0  0  0
   11.6710    9.6180   -6.5420 C   0  0  0  0  0  0  0  0  0  0  0  0
   12.0400    9.9250   -5.2320 C   0  0  0  0  0  0  0  0  0  0  0  0
   12.0610    8.9290   -4.2390 C   0  0  0  0  0  0  0  0  0  0  0  0
   12.4280    9.2250   -2.9170 C   0  0  0  0  0  0  0  0  0  0  0  0
   12.4490    8.2270   -1.9430 C   0  0  0  0  0  0  0  0  0  0  0  0
   12.1050    6.9200   -2.2760 C   0  0  0  0  0  0  0  0  0  0  0  0
   11.7380    6.6080   -3.5860 C   0  0  0  0  0  0  0  0  0  0  0  0
   11.7090    7.6000   -4.5780 C   0  0  0  0  0  0  0  0  0  0  0  0
   11.3400    7.2990   -5.8980 C   0  0  0  0  0  0  0  0  0  0  0  0
  1 18  1  0
  2  3  1  0
  2  1  1  0
  4  3  1  0
  5  4  2  0
  6  5  1  0
  7  6  1  0
  7  2  1  0
  8  5  1  0
  8  9  2  0
 10  9  1  0
 11 10  1  0
 12 11  1  0
 13 12  2  0
 14 13  1  0
 14 16  2  0
 15 14  1  0
 16 17  1  0
 17 11  2  0
 17  8  1  0
 18 19  1  0
 19 20  1  0
 21 22  2  0
 22 20  1  0
 22 24  1  0
 23 22  2  0
 24 25  1  0
 24 33  2  0
 25 26  2  0
 26 27  1  0
 27 28  2  0
 28 29  1  0
 30 29  2  0
 31 30  1  0
 32 27  1  0
 32 31  2  0
 33 32  1  0
M  END
$$$$
