lig_021
     RDKit          3D

 25 29  0  0  1  0  0  0  0  0999 V2000
    5.7740  -27.8210   67.2320 C   0  0  0  0  0  0  0  0  0  0  0  0
    7.1040  -28.1550   67.0040 C   0  0  0  0  0  0  0  0  0  0  0  0
    7.7990  -27.5780   65.9410 C   0  0  0  0  0  0  0  0  0  0  0  0
    7.1790  -26.6480   65.0920 C   0  0  0  0  0  0  0  0  0  0  0  0
    5.8430  -26.2650   65.3280 C   0  0  0  0  0  0  0  0  0  0  0  0
    5.1550  -26.8840   66.3920 C   0  0  0  0  0  0  0  0  0  0  0  0
    5.1450  -25.2600   64.3900 C   0  0  1  0  0  0  0  0  0  0  0  0
    4.0940  -24.3580   65.0950 C   0  0  0  0  0  0  0  0  0  0  0  0
    4.7200  -23.3690   66.0790 C   0  0  0  0  0  0  0  0  0  0  0  0
    5.7630  -22.4910   65.3970 C   0  0  0  0  0  0  0  0  0  0  0  0
    6.8210  -23.3260   64.6820 C   0  0  0  0  0  0  0  0  0  0  0  0
    6.1780  -24.3270   63.7030 C   0  0  1  0  0  0  0  0  0  0  0  0
    7.2030  -25.1990   62.9540 C   0  0  1  0  0  0  0  0  0  0  0  0
    7.9940  -26.0730   63.9540 C   0  0  0  0  0  0  0  0  0  0  0  0
    6.4950  -25.9240   61.8650 N   0  0  0  0  0  0  0  0  0  0  0  0
    5.4310  -26.8110   62.3560 C   0  0  0  0  0  0  0  0  0  0  0  0
    4.4430  -26.0750   63.2730 C   0  0  0  0  0  0  0  0  0  0  0  0
    3.5340  -29.6560   69.4130 N   0  0  0  0  0  0  0  0  0  0  0  0
    4.0130  -29.3070   68.1830 C   0  0  0  0  0  0  0  0  0  0  0  0
    3.5430  -29.8270   67.1820 O   0  0  0  0  0  0  0  0  0  0  0  0
    5.0010  -28.3640   68.2760 N   0  0  0  0  0  0  0  0  0  0  0  0
    7.4230  -26.6240   60.9680 C   0  0  0  0  0  0  0  0  0  0  0  0
    7.0830  -28.0850   60.9050 C   0  0  0  0  0  0  0  0  0  0  0  0
    7.7290  -28.9550   59.8560 C   0  0  0  0  0  0  0  0  0  0  0  0
    8.0850  -29.1420   61.3030 C   0  0  0  0  0  0  0  0  0  0  0  0
  1 21  1  0
  2  1  1  0
  3  2  2  0
  4  5  2  0
  4  3  1  0
  5  6  1  0
  6  1  2  0
  7 17  1  6
  7  8  1  0
  7  5  1  0
  8  9  1  0
 10  9  1  0
 11 10  1  0
 12  7  1  0
 12 11  1  1
 13 12  1  0
 13 14  1  1
 14  4  1  0
 15 16  1  0
 15 13  1  0
 16 17  1  0
 19 21  1  0
 19 18  1  0
 20 19  2  0
 22 15  1  0
 23 22  1  0
 23 25  1  0
 24 23  1  0
 24 25  1  0
M  END
$$$$
