lig_027
     RDKit          3D

 28 30  0  0  1  0  0  0  0  0999 V2000
  -30.4890   10.3950    7.3310 C   0  0  1  0  0  0  0  0  0  0  0  0
  -29.2830   10.9710    6.6050 C   0  0  0  0  0  0  0  0  0  0  0  0
  -29.3540   12.2250    5.9740 C   0  0  0  0  0  0  0  0  0  0  0  0
  -28.2500   12.7450    5.3030 C   0  0  0  0  0  0  0  0  0  0  0  0
  -27.0560   12.0370    5.2350 C   0  0  0  0  0  0  0  0  0  0  0  0
  -26.9800   10.7810    5.8380 C   0  0  0  0  0  0  0  0  0  0  0  0
  -28.0840   10.2430    6.5150 C   0  0  0  0  0  0  0  0  0  0  0  0
  -28.0420    9.0300    7.1520 O   0  0  0  0  0  0  0  0  0  0  0  0
  -26.9530    8.1930    6.7980 C   0  0  0  0  0  0  0  0  0  0  0  0
  -25.6600    8.8090    6.2750 C   0  0  0  0  0  0  0  0  0  0  0  0
  -24.5910    8.2060    6.2410 O   0  0  0  0  0  0  0  0  0  0  0  0
  -25.7790   10.0740    5.7760 N   0  0  0  0  0  0  0  0  0  0  0  0
  -28.3870   13.9680    4.7200 O   0  0  0  0  0  0  0  0  0  0  0  0
  -31.2300   11.4120    8.0150 O   0  0  0  0  0  0  0  0  0  0  0  0
  -31.4270    9.5740    6.4000 C   0  0  0  0  0  0  0  0  0  0  0  0
  -32.5330    8.8960    7.0960 N   0  0  0  0  0  0  0  0  0  0  0  0
  -32.6790    7.4380    6.8740 C   0  0  0  0  0  0  0  0  0  0  0  0
  -32.1620    7.0790    5.4680 C   0  0  0  0  0  0  0  0  0  0  0  0
  -31.9120    6.6220    7.9310 C   0  0  0  0  0  0  0  0  0  0  0  0
  -34.2170    7.1650    6.9810 C   0  0  0  0  0  0  0  0  0  0  0  0
  -35.4690    3.2230    8.2750 C   0  0  0  0  0  0  0  0  0  0  0  0
  -35.6810    4.3380    9.0870 C   0  0  0  0  0  0  0  0  0  0  0  0
  -35.2800    5.6100    8.6730 C   0  0  0  0  0  0  0  0  0  0  0  0
  -34.6500    5.7870    7.4350 C   0  0  0  0  0  0  0  0  0  0  0  0
  -34.4490    4.6670    6.6190 C   0  0  0  0  0  0  0  0  0  0  0  0
  -34.8520    3.3930    7.0360 C   0  0  0  0  0  0  0  0  0  0  0  0
  -36.2770    2.0460   10.1740 C   0  0  0  0  0  0  0  0  0  0  0  0
  -35.9090    2.0390    8.8010 O   0  0  0  0  0  0  0  0  0  0  0  0
  1 15  1  0
  1 14  1  6
  2  1  1  0
  3  2  2  0
  4  3  1  0
  5  4  2  0
  5  6  1  0
  6  7  2  0
  7  2  1  0
  7  8  1  0
  9  8  1  0
 10  9  1  0
 11 10  2  0
 12  6  1  0
 12 10  1  0
 13  4  1  0
 15 16  1  0
 17 20  1  0
 17 16  1  0
 17 19  1  0
 18 17  1  0
 20 24  1  0
 21 28  1  0
 21 22  1  0
 23 22  2  0
 24 23  1  0
 25 26  1  0
 25 24  2  0
 26 21  2  0
 28 27  1  0
M  END
$$$$
