lig_084
     RDKit          3D

 26 30  0  0  0  0  0  0  0  0999 V2000
    1.5980    8.5440   18.2670 N   0  0  0  0  0  0  0  0  0  0  0  0
    0.4620    7.8720   17.8730 C   0  0  0  0  0  0  0  0  0  0  0  0
    0.3490    6.5840   18.1220 N   0  0  0  0  0  0  0  0  0  0  0  0
   -0.8430    5.9680   17.6900 C   0  0  0  0  0  0  0  0  0  0  0  0
   -1.2040    4.6560   17.8390 C   0  0  0  0  0  0  0  0  0  0  0  0
   -2.4470    4.5130   17.2570 N   0  0  0  0  0  0  0  0  0  0  0  0
   -2.8800    5.7200   16.7470 C   0  0  0  0  0  0  0  0  0  0  0  0
   -1.8870    6.6210   17.0140 C   0  0  0  0  0  0  0  0  0  0  0  0
   -1.7050    8.0930   16.7370 C   0  0  0  0  0  0  0  0  0  0  0  0
   -2.4220    9.0040   16.1370 N   0  0  0  0  0  0  0  0  0  0  0  0
   -1.6120   10.1190   16.2400 C   0  0  0  0  0  0  0  0  0  0  0  0
   -0.4320    9.9270   16.8650 N   0  0  0  0  0  0  0  0  0  0  0  0
   -0.5350    8.6180   17.1900 N   0  0  0  0  0  0  0  0  0  0  0  0
   -2.0390   11.5090   15.6580 C   0  0  0  0  0  0  0  0  0  0  0  0
   -2.9200   12.3970   16.2460 C   0  0  0  0  0  0  0  0  0  0  0  0
   -3.0120   13.5150   15.3820 C   0  0  0  0  0  0  0  0  0  0  0  0
   -2.1830   13.2430   14.3190 C   0  0  0  0  0  0  0  0  0  0  0  0
   -1.5890   12.0330   14.4770 O   0  0  0  0  0  0  0  0  0  0  0  0
   -3.2000    3.2690   17.2000 C   0  0  0  0  0  0  0  0  0  0  0  0
   -4.2800    3.3090   16.1210 C   0  0  0  0  0  0  0  0  0  0  0  0
   -5.6420    3.5570   16.7160 C   0  0  0  0  0  0  0  0  0  0  0  0
   -5.8810    4.6980   17.4930 C   0  0  0  0  0  0  0  0  0  0  0  0
   -7.1360    4.9140   18.0630 C   0  0  0  0  0  0  0  0  0  0  0  0
   -8.1630    3.9930   17.8630 C   0  0  0  0  0  0  0  0  0  0  0  0
   -7.9340    2.8530   17.0950 C   0  0  0  0  0  0  0  0  0  0  0  0
   -6.6800    2.6330   16.5240 C   0  0  0  0  0  0  0  0  0  0  0  0
  2  3  2  0
  2  1  1  0
  4  5  2  0
  4  3  1  0
  6  5  1  0
  7  8  2  0
  7  6  1  0
  8  4  1  0
  9  8  1  0
  9 13  1  0
 10 11  1  0
 10  9  2  0
 11 12  2  0
 12 13  1  0
 13  2  1  0
 14 11  1  0
 14 15  2  0
 16 15  1  0
 17 18  1  0
 17 16  2  0
 18 14  1  0
 19  6  1  0
 20 21  1  0
 20 19  1  0
 21 22  2  0
 22 23  1  0
 24 23  2  0
 25 24  1  0
 26 21  1  0
 26 25  2  0
M  END
$$$$
