lig_024
     RDKit          3D

 25 27  0  0  0  0  0  0  0  0999 V2000
  179.5570  166.3530  137.5840 C   0  0  0  0  0  0  0  0  0  0  0  0
  178.2280  164.0710  134.9780 N   0  0  0  0  0  0  0  0  0  0  0  0
  177.7590  164.0770  136.3840 C   0  0  0  0  0  0  0  0  0  0  0  0
  177.3960  165.5130  136.8370 C   0  0  0  0  0  0  0  0  0  0  0  0
  178.4500  166.5380  136.6320 N   0  0  0  0  0  0  0  0  0  0  0  0
  178.8770  166.4630  135.2130 C   0  0  0  0  0  0  0  0  0  0  0  0
  179.2940  165.0580  134.7170 C   0  0  0  0  0  0  0  0  0  0  0  0
  179.8040  161.2640  131.2210 C   0  0  0  0  0  0  0  0  0  0  0  0
  179.1650  161.3730  132.5730 C   0  0  0  0  0  0  0  0  0  0  0  0
  178.6990  160.2360  133.2340 C   0  0  0  0  0  0  0  0  0  0  0  0
  178.0980  160.3570  134.4830 C   0  0  0  0  0  0  0  0  0  0  0  0
  177.9420  161.6170  135.0730 C   0  0  0  0  0  0  0  0  0  0  0  0
  178.3650  162.7870  134.4260 C   0  0  0  0  0  0  0  0  0  0  0  0
  178.9850  162.6310  133.1720 C   0  0  0  0  0  0  0  0  0  0  0  0
  180.1180  167.6670  138.1410 C   0  0  0  0  0  0  0  0  0  0  0  0
  179.0590  168.4870  138.8770 C   0  0  0  0  0  0  0  0  0  0  0  0
  178.5350  169.5550  138.0480 N   0  0  0  0  0  0  0  0  0  0  0  0
  178.6130  170.8760  138.4280 C   0  0  0  0  0  0  0  0  0  0  0  0
  179.1600  171.2360  139.4660 O   0  0  0  0  0  0  0  0  0  0  0  0
  177.9670  171.8280  137.5360 C   0  0  0  0  0  0  0  0  0  0  0  0
  178.2460  171.9660  136.1550 C   0  0  0  0  0  0  0  0  0  0  0  0
  177.5170  172.9150  135.5660 N   0  0  0  0  0  0  0  0  0  0  0  0
  176.7450  173.3760  136.5580 N   0  0  0  0  0  0  0  0  0  0  0  0
  176.9560  172.7540  137.7630 C   0  0  0  0  0  0  0  0  0  0  0  0
  176.1400  173.1080  138.9490 C   0  0  0  0  0  0  0  0  0  0  0  0
  1 15  1  0
  2  3  1  0
  3  4  1  0
  5  4  1  0
  5  1  1  0
  6  5  1  0
  7  2  1  0
  7  6  1  0
  8  9  1  0
  9 14  2  0
  9 10  1  0
 10 11  2  0
 11 12  1  0
 13  2  1  0
 13 12  2  0
 14 13  1  0
 15 16  1  0
 17 18  1  0
 17 16  1  0
 18 19  2  0
 20 24  2  0
 20 18  1  0
 21 20  1  0
 22 21  2  0
 22 23  1  0
 23 24  1  0
 24 25  1  0
M  END
$$$$
