lig_029
     RDKit          3D

 39 42  0  0  1  0  0  0  0  0999 V2000
  178.5430  163.6630  137.5390 C   0  0  0  0  0  0  0  0  0  0  0  0
  177.4480  163.4770  138.0510 O   0  0  0  0  0  0  0  0  0  0  0  0
  178.8660  164.7060  136.7080 N   0  0  0  0  0  0  0  0  0  0  0  0
  180.4900  163.9360  139.7900 C   0  0  0  0  0  0  0  0  0  0  0  0
  180.5130  162.8360  138.7630 C   0  0  0  0  0  0  0  0  0  0  0  0
  179.6530  162.6980  137.7350 C   0  0  0  0  0  0  0  0  0  0  0  0
  179.6620  161.4820  136.8370 C   0  0  2  0  0  0  0  0  0  0  0  0
  181.0150  160.7580  136.8450 C   0  0  0  0  0  0  0  0  0  0  0  0
  181.6780  160.7580  138.1980 C   0  0  0  0  0  0  0  0  0  0  0  0
  182.4620  159.8790  138.5470 O   0  0  0  0  0  0  0  0  0  0  0  0
  181.4520  161.8540  138.9870 N   0  0  0  0  0  0  0  0  0  0  0  0
  179.2410  161.7820  135.3970 C   0  0  0  0  0  0  0  0  0  0  0  0
  177.9010  161.5920  135.0090 C   0  0  0  0  0  0  0  0  0  0  0  0
  177.4840  161.8940  133.7090 C   0  0  0  0  0  0  0  0  0  0  0  0
  178.4000  162.3920  132.7910 C   0  0  0  0  0  0  0  0  0  0  0  0
  177.9940  162.6900  131.5490 F   0  0  0  0  0  0  0  0  0  0  0  0
  179.7230  162.5880  133.1600 C   0  0  0  0  0  0  0  0  0  0  0  0
  180.6050  163.0810  132.2790 F   0  0  0  0  0  0  0  0  0  0  0  0
  180.1500  162.2880  134.4500 C   0  0  0  0  0  0  0  0  0  0  0  0
  177.8790  165.6810  136.2890 C   0  0  0  0  0  0  0  0  0  0  0  0
  178.3580  167.1110  136.5430 C   0  0  0  0  0  0  0  0  0  0  0  0
  178.1060  167.5600  137.9860 C   0  0  0  0  0  0  0  0  0  0  0  0
  178.1630  169.0210  138.1500 N   0  0  0  0  0  0  0  0  0  0  0  0
  177.2940  169.5110  139.2170 C   0  0  0  0  0  0  0  0  0  0  0  0
  177.1010  171.0220  139.0470 C   0  0  0  0  0  0  0  0  0  0  0  0
  178.4150  171.7590  138.6440 C   0  0  0  0  0  0  0  0  0  0  0  0
  179.6600  170.8800  138.9340 C   0  0  0  0  0  0  0  0  0  0  0  0
  179.5500  169.4660  138.3400 C   0  0  0  0  0  0  0  0  0  0  0  0
  178.5470  173.1310  139.3850 C   0  0  0  0  0  0  0  0  0  0  0  0
  179.7520  173.4670  140.0540 C   0  0  0  0  0  0  0  0  0  0  0  0
  179.9070  174.6780  140.7350 C   0  0  0  0  0  0  0  0  0  0  0  0
  178.8640  175.5850  140.7690 C   0  0  0  0  0  0  0  0  0  0  0  0
  179.0120  176.7440  141.4210 F   0  0  0  0  0  0  0  0  0  0  0  0
  177.6650  175.3030  140.1350 C   0  0  0  0  0  0  0  0  0  0  0  0
  177.4950  174.0890  139.4460 C   0  0  0  0  0  0  0  0  0  0  0  0
  176.2130  173.8980  138.8260 C   0  0  0  0  0  0  0  0  0  0  0  0
  175.1800  173.7290  138.3250 N   0  0  0  0  0  0  0  0  0  0  0  0
  178.3620  171.9300  137.1520 C   0  0  0  0  0  0  0  0  0  0  0  0
  178.2980  172.0700  136.0010 N   0  0  0  0  0  0  0  0  0  0  0  0
  1  6  1  0
  1  2  2  0
  3  1  1  0
  5 11  1  0
  5  4  1  0
  6  5  2  0
  7 12  1  6
  7  8  1  0
  7  6  1  0
  8  9  1  0
  9 10  2  0
  9 11  1  0
 13 12  1  0
 14 13  2  0
 15 17  2  0
 15 14  1  0
 16 15  1  0
 17 19  1  0
 18 17  1  0
 19 12  2  0
 20 21  1  0
 20  3  1  0
 21 22  1  0
 22 23  1  0
 23 28  1  0
 23 24  1  0
 25 24  1  0
 26 38  1  0
 26 27  1  0
 26 25  1  0
 26 29  1  0
 28 27  1  0
 29 35  2  0
 29 30  1  0
 30 31  2  0
 31 32  1  0
 32 33  1  0
 34 32  2  0
 35 34  1  0
 36 35  1  0
 37 36  3  0
 39 38  3  0
M  END
$$$$
