lig_101
     RDKit          3D

 35 40  0  0  1  0  0  0  0  0999 V2000
   -3.5160    8.8590   15.9960 N   0  0  0  0  0  0  0  0  0  0  0  0
   -2.3040    9.4810   15.9890 N   0  0  0  0  0  0  0  0  0  0  0  0
   -1.4670    8.5760   16.5180 C   0  0  0  0  0  0  0  0  0  0  0  0
   -2.1400    7.4110   16.8430 C   0  0  0  0  0  0  0  0  0  0  0  0
   -3.4640    7.5840   16.5010 C   0  0  0  0  0  0  0  0  0  0  0  0
   -4.5100    6.7080   16.6260 N   0  0  0  0  0  0  0  0  0  0  0  0
   -4.2230    5.5390   17.1610 C   0  0  0  0  0  0  0  0  0  0  0  0
   -5.2050    4.5950   17.3440 N   0  0  0  0  0  0  0  0  0  0  0  0
   -2.8970    5.2080   17.5580 N   0  0  0  0  0  0  0  0  0  0  0  0
   -2.5160    4.0170   18.0610 N   0  0  0  0  0  0  0  0  0  0  0  0
   -1.1990    4.2320   18.2470 C   0  0  0  0  0  0  0  0  0  0  0  0
   -0.7390    5.4840   17.8700 N   0  0  0  0  0  0  0  0  0  0  0  0
   -1.8320    6.0540   17.4370 C   0  0  0  0  0  0  0  0  0  0  0  0
   -0.2460    3.1450   18.8420 C   0  0  0  0  0  0  0  0  0  0  0  0
   -0.6330    1.8850   19.2600 C   0  0  0  0  0  0  0  0  0  0  0  0
    0.5350    1.2330   19.7250 C   0  0  0  0  0  0  0  0  0  0  0  0
    1.5620    2.1330   19.5640 C   0  0  0  0  0  0  0  0  0  0  0  0
    1.1000    3.2920   19.0310 O   0  0  0  0  0  0  0  0  0  0  0  0
   -4.6800    9.5470   15.4700 C   0  0  0  0  0  0  0  0  0  0  0  0
   -5.1410   10.7310   16.3250 C   0  0  0  0  0  0  0  0  0  0  0  0
   -4.8770   12.1050   15.6980 C   0  0  0  0  0  0  0  0  0  0  0  0
    0.8410   13.4120   14.7830 C   0  0  1  0  0  0  0  0  0  0  0  0
    0.4580   13.8510   16.1050 O   0  0  0  0  0  0  0  0  0  0  0  0
   -0.8470   13.4720   16.1390 C   0  0  0  0  0  0  0  0  0  0  0  0
   -1.7140   13.6590   17.1910 C   0  0  0  0  0  0  0  0  0  0  0  0
   -3.0270   13.2010   17.0400 C   0  0  0  0  0  0  0  0  0  0  0  0
   -3.4500   12.5780   15.8440 C   0  0  0  0  0  0  0  0  0  0  0  0
   -2.5320   12.4000   14.7970 C   0  0  0  0  0  0  0  0  0  0  0  0
   -1.2440   12.8590   14.9760 C   0  0  0  0  0  0  0  0  0  0  0  0
   -0.2380   12.7740   14.0660 O   0  0  0  0  0  0  0  0  0  0  0  0
    1.4280   14.5860   13.9720 C   0  0  0  0  0  0  0  0  0  0  0  0
    2.0350   14.4900   12.9110 O   0  0  0  0  0  0  0  0  0  0  0  0
    1.2100   15.7680   14.6270 O   0  0  0  0  0  0  0  0  0  0  0  0
    2.3800   16.8590   16.4010 C   0  0  0  0  0  0  0  0  0  0  0  0
    2.4020   16.5040   14.9280 C   0  0  0  0  0  0  0  0  0  0  0  0
  1  5  1  0
  2  1  1  0
  2  3  2  0
  3  4  1  0
  4 13  1  0
  5  6  1  0
  5  4  2  0
  6  7  2  0
  7  8  1  0
  7  9  1  0
  9 10  1  0
 10 11  2  0
 11 14  1  0
 12 11  1  0
 13  9  1  0
 13 12  2  0
 14 18  1  0
 14 15  2  0
 15 16  1  0
 17 16  2  0
 18 17  1  0
 19  1  1  0
 19 20  1  0
 21 27  1  0
 21 20  1  0
 22 31  1  6
 22 23  1  0
 23 24  1  0
 24 25  1  0
 26 25  2  0
 27 26  1  0
 28 29  1  0
 28 27  2  0
 29 24  2  0
 30 22  1  0
 30 29  1  0
 31 33  1  0
 32 31  2  0
 33 35  1  0
 35 34  1  0
M  END
$$$$
