lig_069
     RDKit          3D

 28 32  0  0  0  0  0  0  0  0999 V2000
    1.4550    8.5160   18.1950 N   0  0  0  0  0  0  0  0  0  0  0  0
    0.2410    8.0850   17.7300 C   0  0  0  0  0  0  0  0  0  0  0  0
   -0.5250    8.9530   17.1110 N   0  0  0  0  0  0  0  0  0  0  0  0
   -1.7610    8.5200   16.6270 C   0  0  0  0  0  0  0  0  0  0  0  0
   -2.2260    7.2640   16.7660 C   0  0  0  0  0  0  0  0  0  0  0  0
   -1.4360    6.3480   17.4310 N   0  0  0  0  0  0  0  0  0  0  0  0
   -0.2140    6.7220   17.9240 C   0  0  0  0  0  0  0  0  0  0  0  0
    0.4050    5.7520   18.5610 N   0  0  0  0  0  0  0  0  0  0  0  0
   -0.4560    4.6820   18.4530 C   0  0  0  0  0  0  0  0  0  0  0  0
   -0.3100    3.3740   18.9380 C   0  0  0  0  0  0  0  0  0  0  0  0
   -1.3330    2.4470   18.7040 C   0  0  0  0  0  0  0  0  0  0  0  0
   -2.4820    2.8130   18.0010 C   0  0  0  0  0  0  0  0  0  0  0  0
   -2.6510    4.1110   17.5080 C   0  0  0  0  0  0  0  0  0  0  0  0
   -1.6170    5.0230   17.7510 C   0  0  0  0  0  0  0  0  0  0  0  0
   -2.6440    9.5010   15.8960 C   0  0  0  0  0  0  0  0  0  0  0  0
   -3.6820    9.1730   15.3330 O   0  0  0  0  0  0  0  0  0  0  0  0
   -2.1460   10.7790   15.9270 N   0  0  0  0  0  0  0  0  0  0  0  0
   -2.6720   11.8240   15.0850 C   0  0  0  0  0  0  0  0  0  0  0  0
   -2.6190   13.1590   15.7830 C   0  0  0  0  0  0  0  0  0  0  0  0
   -2.1740   13.2060   17.1190 C   0  0  0  0  0  0  0  0  0  0  0  0
   -2.0990   14.4170   17.7970 C   0  0  0  0  0  0  0  0  0  0  0  0
   -2.4590   15.5900   17.1440 C   0  0  0  0  0  0  0  0  0  0  0  0
   -2.8880   15.5580   15.8070 C   0  0  0  0  0  0  0  0  0  0  0  0
   -3.2420   16.7360   15.1360 C   0  0  0  0  0  0  0  0  0  0  0  0
   -3.6560   16.6840   13.8120 C   0  0  0  0  0  0  0  0  0  0  0  0
   -3.7010   15.4480   13.2010 C   0  0  0  0  0  0  0  0  0  0  0  0
   -3.3690   14.2910   13.8160 N   0  0  0  0  0  0  0  0  0  0  0  0
   -2.9700   14.3320   15.1050 C   0  0  0  0  0  0  0  0  0  0  0  0
  2  7  1  0
  2  1  1  0
  3  2  2  0
  4  5  2  0
  4  3  1  0
  5  6  1  0
  6 14  1  0
  6  7  1  0
  7  8  2  0
  9  8  1  0
  9 10  2  0
 11 10  1  0
 12 11  2  0
 13 14  2  0
 13 12  1  0
 14  9  1  0
 15 17  1  0
 15  4  1  0
 16 15  2  0
 18 19  1  0
 18 17  1  0
 19 20  2  0
 20 21  1  0
 22 21  2  0
 23 22  1  0
 24 23  2  0
 25 24  1  0
 26 25  2  0
 26 27  1  0
 27 28  2  0
 28 19  1  0
 28 23  1  0
M  END
$$$$
