lig_013
     RDKit          3D

 31 35  0  0  1  0  0  0  0  0999 V2000
   10.1670    7.3610  -12.3200 C   0  0  0  0  0  0  0  0  0  0  0  0
   10.5910    7.5700   -8.0080 C   0  0  1  0  0  0  0  0  0  0  0  0
   11.7900    8.0840   -8.8190 C   0  0  0  0  0  0  0  0  0  0  0  0
   11.7160    7.7520  -10.3140 C   0  0  0  0  0  0  0  0  0  0  0  0
   10.2710    7.6000  -10.8010 C   0  0  2  0  0  0  0  0  0  0  0  0
    9.5690    6.4530  -10.0440 C   0  0  0  0  0  0  0  0  0  0  0  0
   10.0490    6.2700   -8.6020 C   0  0  0  0  0  0  0  0  0  0  0  0
   10.5960    9.5560   -6.0200 O   0  0  0  0  0  0  0  0  0  0  0  0
   10.9850    8.4310   -5.7130 C   0  0  0  0  0  0  0  0  0  0  0  0
   10.9510    7.3840   -6.6130 N   0  0  0  0  0  0  0  0  0  0  0  0
   11.5170    8.1170   -4.3920 C   0  0  0  0  0  0  0  0  0  0  0  0
   11.7110    6.8550   -3.8600 C   0  0  0  0  0  0  0  0  0  0  0  0
   12.2460    6.8870   -2.5410 C   0  0  0  0  0  0  0  0  0  0  0  0
   12.4450    8.1760   -2.1000 C   0  0  0  0  0  0  0  0  0  0  0  0
   11.9870    9.3310   -3.2740 S   0  0  0  0  0  0  0  0  0  0  0  0
   11.3030    6.4890  -12.8790 C   0  0  0  0  0  0  0  0  0  0  0  0
   10.9140    5.0780  -13.0310 N   0  0  0  0  0  0  0  0  0  0  0  0
   11.8010    4.3560  -13.9740 C   0  0  0  0  0  0  0  0  0  0  0  0
   11.1710    3.0820  -14.5840 C   0  0  0  0  0  0  0  0  0  0  0  0
    9.9340    3.3880  -15.3310 N   0  0  0  0  0  0  0  0  0  0  0  0
    9.8170    2.9760  -16.6360 C   0  0  0  0  0  0  0  0  0  0  0  0
    9.4660    3.8030  -17.6220 N   0  0  0  0  0  0  0  0  0  0  0  0
    9.4630    2.9970  -19.0550 S   0  0  0  0  0  0  0  0  0  0  0  0
    9.8710    1.4600  -18.4210 C   0  0  0  0  0  0  0  0  0  0  0  0
   10.0320    0.2360  -19.0920 C   0  0  0  0  0  0  0  0  0  0  0  0
   10.3400   -0.9000  -18.3420 C   0  0  0  0  0  0  0  0  0  0  0  0
   10.4750   -0.8210  -16.9630 C   0  0  0  0  0  0  0  0  0  0  0  0
   10.3160    0.4050  -16.3060 C   0  0  0  0  0  0  0  0  0  0  0  0
   10.0240    1.5880  -17.0370 C   0  0  0  0  0  0  0  0  0  0  0  0
    9.2850    4.6600  -14.9500 C   0  0  0  0  0  0  0  0  0  0  0  0
    9.4960    4.9530  -13.4500 C   0  0  0  0  0  0  0  0  0  0  0  0
  2 10  1  1
  3  2  1  0
  4  3  1  0
  5  1  1  6
  5  4  1  0
  5  6  1  0
  6  7  1  0
  7  2  1  0
  8  9  2  0
  9 11  1  0
 10  9  1  0
 11 12  2  0
 11 15  1  0
 12 13  1  0
 13 14  2  0
 15 14  1  0
 16  1  1  0
 17 16  1  0
 18 17  1  0
 19 18  1  0
 20 30  1  0
 20 19  1  0
 21 20  1  0
 22 21  2  0
 23 24  1  0
 23 22  1  0
 24 29  1  0
 25 24  2  0
 25 26  1  0
 26 27  2  0
 27 28  1  0
 29 21  1  0
 29 28  2  0
 30 31  1  0
 31 17  1  0
M  END
$$$$
