lig_000
     RDKit          3D

 24 27  0  0  1  0  0  0  0  0999 V2000
    9.0730    2.4390  -18.3300 C   0  0  1  0  0  0  0  0  0  0  0  0
   10.3190    1.8350  -18.9800 C   0  0  0  0  0  0  0  0  0  0  0  0
   11.4660    1.4350  -17.6110 S   0  0  0  0  0  0  0  0  0  0  0  0
   10.3080    1.9650  -16.3050 C   0  0  2  0  0  0  0  0  0  0  0  0
   10.4490    1.1890  -15.0030 C   0  0  0  0  0  0  0  0  0  0  0  0
    9.3010    0.2270  -14.7590 C   0  0  0  0  0  0  0  0  0  0  0  0
    7.9110    0.8440  -15.0090 C   0  0  1  0  0  0  0  0  0  0  0  0
    6.8630   -0.3080  -14.9590 C   0  0  0  0  0  0  0  0  0  0  0  0
    6.4690   -0.3780  -13.4930 C   0  0  0  0  0  0  0  0  0  0  0  0
    6.4160    1.0860  -13.1040 C   0  0  0  0  0  0  0  0  0  0  0  0
    7.4280    1.7410  -13.9260 N   0  0  0  0  0  0  0  0  0  0  0  0
    7.8420    3.0500  -13.7650 C   0  0  0  0  0  0  0  0  0  0  0  0
    8.6410    3.5830  -14.5420 O   0  0  0  0  0  0  0  0  0  0  0  0
    7.8280    1.5150  -16.4020 C   0  0  0  0  0  0  0  0  0  0  0  0
    6.7500    1.7240  -16.9610 O   0  0  0  0  0  0  0  0  0  0  0  0
    9.0190    1.9200  -16.9630 N   0  0  0  0  0  0  0  0  0  0  0  0
    7.2530    3.8530  -12.5760 C   0  0  2  0  0  0  0  0  0  0  0  0
    6.1410    4.8070  -13.0100 C   0  0  0  0  0  0  0  0  0  0  0  0
    6.5900    6.1790  -12.5380 C   0  0  0  0  0  0  0  0  0  0  0  0
    8.0950    6.0570  -12.4990 C   0  0  0  0  0  0  0  0  0  0  0  0
    8.3000    4.7120  -11.9640 N   0  0  0  0  0  0  0  0  0  0  0  0
    8.6070    4.5500  -19.5390 N   0  0  0  0  0  0  0  0  0  0  0  0
    9.0910    3.9810  -18.3950 C   0  0  0  0  0  0  0  0  0  0  0  0
    9.6110    4.6850  -17.5330 O   0  0  0  0  0  0  0  0  0  0  0  0
  1 23  1  1
  1 16  1  0
  2  1  1  0
  2  3  1  0
  3  4  1  0
  4  5  1  1
  5  6  1  0
  7  8  1  6
  7  6  1  0
  7 11  1  0
  8  9  1  0
  9 10  1  0
 11 12  1  0
 11 10  1  0
 13 12  2  0
 14  7  1  0
 15 14  2  0
 16 14  1  0
 16  4  1  0
 17 12  1  6
 17 21  1  0
 18 17  1  0
 18 19  1  0
 19 20  1  0
 20 21  1  0
 22 23  1  0
 23 24  2  0
M  END
$$$$
