lig_008
     RDKit          3D

 25 27  0  0  0  0  0  0  0  0999 V2000
  -12.6320  -14.6230   36.7120 C   0  0  0  0  0  0  0  0  0  0  0  0
  -12.9270  -14.4360   35.3540 C   0  0  0  0  0  0  0  0  0  0  0  0
  -12.9850  -15.5240   34.4800 C   0  0  0  0  0  0  0  0  0  0  0  0
  -12.7480  -16.8020   34.9590 C   0  0  0  0  0  0  0  0  0  0  0  0
  -12.8020  -17.8450   34.1210 F   0  0  0  0  0  0  0  0  0  0  0  0
  -12.4540  -17.0170   36.2990 C   0  0  0  0  0  0  0  0  0  0  0  0
  -12.3910  -15.9360   37.1950 C   0  0  0  0  0  0  0  0  0  0  0  0
  -12.0760  -16.2130   38.6050 C   0  0  0  0  0  0  0  0  0  0  0  0
  -10.7430  -16.3770   39.0200 C   0  0  0  0  0  0  0  0  0  0  0  0
  -10.4450  -16.6500   40.3560 C   0  0  0  0  0  0  0  0  0  0  0  0
  -11.4770  -16.7570   41.2810 C   0  0  0  0  0  0  0  0  0  0  0  0
  -11.1900  -17.0190   42.5620 F   0  0  0  0  0  0  0  0  0  0  0  0
  -12.8020  -16.5950   40.8950 C   0  0  0  0  0  0  0  0  0  0  0  0
  -13.1020  -16.3230   39.5590 C   0  0  0  0  0  0  0  0  0  0  0  0
  -11.7350  -11.7670   36.3750 O   0  0  0  0  0  0  0  0  0  0  0  0
  -12.1490  -12.2640   37.4100 C   0  0  0  0  0  0  0  0  0  0  0  0
  -12.5670  -13.5460   37.6220 N   0  0  0  0  0  0  0  0  0  0  0  0
  -12.2620  -11.5910   38.5870 O   0  0  0  0  0  0  0  0  0  0  0  0
  -11.7330  -12.2550   39.7480 C   0  0  0  0  0  0  0  0  0  0  0  0
  -10.2200  -12.0240   39.8760 C   0  0  0  0  0  0  0  0  0  0  0  0
   -9.4770  -12.7860   38.7670 C   0  0  0  0  0  0  0  0  0  0  0  0
   -8.1620  -12.1050   38.4100 C   0  0  0  0  0  0  0  0  0  0  0  0
   -8.3650  -10.7560   37.8790 N   0  0  0  0  0  0  0  0  0  0  0  0
   -9.4900  -10.0370   38.4760 C   0  0  0  0  0  0  0  0  0  0  0  0
   -9.8550  -10.5270   39.8750 C   0  0  0  0  0  0  0  0  0  0  0  0
  1  7  2  0
  1 17  1  0
  2  1  1  0
  3  4  1  0
  3  2  2  0
  4  6  2  0
  5  4  1  0
  6  7  1  0
  7  8  1  0
  8  9  1  0
  8 14  2  0
  9 10  2  0
 10 11  1  0
 11 12  1  0
 13 11  2  0
 14 13  1  0
 15 16  2  0
 16 17  1  0
 16 18  1  0
 18 19  1  0
 19 20  1  0
 21 20  1  0
 22 21  1  0
 23 22  1  0
 23 24  1  0
 24 25  1  0
 25 20  1  0
M  END
$$$$
