lig_398
     RDKit          3D

 29 32  0  0  0  0  0  0  0  0999 V2000
   -1.3130    7.4990   17.0960 C   0  0  0  0  0  0  0  0  0  0  0  0
   -1.7700    6.2100   17.3610 C   0  0  0  0  0  0  0  0  0  0  0  0
   -3.0220    5.8140   17.0690 N   0  0  0  0  0  0  0  0  0  0  0  0
   -3.8760    6.6930   16.4910 C   0  0  0  0  0  0  0  0  0  0  0  0
   -3.5000    7.9980   16.1700 C   0  0  0  0  0  0  0  0  0  0  0  0
   -2.1880    8.4210   16.4820 C   0  0  0  0  0  0  0  0  0  0  0  0
   -1.7430    9.7920   16.1760 C   0  0  0  0  0  0  0  0  0  0  0  0
   -1.1850   10.1070   14.9280 C   0  0  0  0  0  0  0  0  0  0  0  0
   -0.7620   11.4100   14.6380 C   0  0  0  0  0  0  0  0  0  0  0  0
   -0.8890   12.4170   15.5920 C   0  0  0  0  0  0  0  0  0  0  0  0
   -1.4420   12.1100   16.8370 C   0  0  0  0  0  0  0  0  0  0  0  0
   -1.8660   10.8120   17.1300 C   0  0  0  0  0  0  0  0  0  0  0  0
   -0.5190   13.7250   15.4410 O   0  0  0  0  0  0  0  0  0  0  0  0
   -1.5410   14.7110   15.5730 C   0  0  0  0  0  0  0  0  0  0  0  0
   -2.3480   14.7110   14.3100 C   0  0  0  0  0  0  0  0  0  0  0  0
   -3.7840   14.2520   14.3180 C   0  0  0  0  0  0  0  0  0  0  0  0
   -3.4610   15.7070   14.1090 C   0  0  0  0  0  0  0  0  0  0  0  0
   -1.0010    5.2520   18.0100 N   0  0  0  0  0  0  0  0  0  0  0  0
    1.1190    8.1350   17.7380 N   0  0  0  0  0  0  0  0  0  0  0  0
    0.0340    7.8600   17.4330 C   0  0  0  0  0  0  0  0  0  0  0  0
   -4.4230    8.8930   15.5320 C   0  0  0  0  0  0  0  0  0  0  0  0
   -5.1570    9.6220   15.0060 N   0  0  0  0  0  0  0  0  0  0  0  0
   -5.5080    6.0550   16.1240 S   0  0  0  0  0  0  0  0  0  0  0  0
   -6.0260    5.4960   17.7840 C   0  0  0  0  0  0  0  0  0  0  0  0
   -6.8900    4.2790   17.7120 C   0  0  0  0  0  0  0  0  0  0  0  0
   -6.9090    3.3870   16.7410 N   0  0  0  0  0  0  0  0  0  0  0  0
   -7.8670    2.4720   17.0910 C   0  0  0  0  0  0  0  0  0  0  0  0
   -8.4490    2.8120   18.2860 C   0  0  0  0  0  0  0  0  0  0  0  0
   -7.8260    3.9650   18.6700 N   0  0  0  0  0  0  0  0  0  0  0  0
  1  2  1  0
  1 20  1  0
  2 18  1  0
  3  2  2  0
  4  3  1  0
  5  6  1  0
  5  4  2  0
  6  1  2  0
  7  6  1  0
  7 12  2  0
  8  7  1  0
  9  8  2  0
  9 10  1  0
 10 11  2  0
 11 12  1  0
 13 14  1  0
 13 10  1  0
 15 16  1  0
 15 14  1  0
 17 15  1  0
 17 16  1  0
 20 19  3  0
 21  5  1  0
 22 21  3  0
 23  4  1  0
 23 24  1  0
 25 24  1  0
 25 29  1  0
 26 27  1  0
 26 25  2  0
 27 28  2  0
 28 29  1  0
M  END
$$$$
