lig_319
     RDKit          3D

 28 31  0  0  0  0  0  0  0  0999 V2000
   -1.2270   13.6880   15.2860 N   0  0  0  0  0  0  0  0  0  0  0  0
   -0.2510   12.7400   15.6180 C   0  0  0  0  0  0  0  0  0  0  0  0
    0.9580   12.9460   15.6150 O   0  0  0  0  0  0  0  0  0  0  0  0
   -0.8030   11.4850   15.9690 C   0  0  0  0  0  0  0  0  0  0  0  0
   -0.2000   10.3230   16.3460 N   0  0  0  0  0  0  0  0  0  0  0  0
   -1.2000    9.4080   16.5760 C   0  0  0  0  0  0  0  0  0  0  0  0
   -2.3910    9.9390   16.3590 N   0  0  0  0  0  0  0  0  0  0  0  0
   -2.1340   11.2220   15.9840 C   0  0  0  0  0  0  0  0  0  0  0  0
   -3.0590   12.1820   15.6520 N   0  0  0  0  0  0  0  0  0  0  0  0
   -4.4760   11.8660   15.6840 C   0  0  0  0  0  0  0  0  0  0  0  0
   -2.6220   13.4590   15.2910 C   0  0  0  0  0  0  0  0  0  0  0  0
   -3.4190   14.3530   14.9900 O   0  0  0  0  0  0  0  0  0  0  0  0
   -0.9690    7.9500   17.0250 C   0  0  0  0  0  0  0  0  0  0  0  0
    0.2300    7.3750   17.4760 C   0  0  0  0  0  0  0  0  0  0  0  0
    0.0830    6.0840   17.7910 N   0  0  0  0  0  0  0  0  0  0  0  0
   -1.2240    5.8430   17.5500 N   0  0  0  0  0  0  0  0  0  0  0  0
   -1.8960    6.9380   17.0690 C   0  0  0  0  0  0  0  0  0  0  0  0
   -1.7700    4.5070   17.7640 C   0  0  0  0  0  0  0  0  0  0  0  0
   -3.2030    4.4030   17.3020 C   0  0  0  0  0  0  0  0  0  0  0  0
   -4.2560    4.4960   18.2250 C   0  0  0  0  0  0  0  0  0  0  0  0
   -5.5820    4.3990   17.7990 C   0  0  0  0  0  0  0  0  0  0  0  0
   -5.8680    4.2030   16.4500 C   0  0  0  0  0  0  0  0  0  0  0  0
   -4.8310    4.1030   15.5260 C   0  0  0  0  0  0  0  0  0  0  0  0
   -3.5030    4.2010   15.9480 C   0  0  0  0  0  0  0  0  0  0  0  0
   -0.7550   15.0190   14.9190 C   0  0  0  0  0  0  0  0  0  0  0  0
   -0.4280   15.9010   16.1310 C   0  0  0  0  0  0  0  0  0  0  0  0
   -2.2050   16.3080   17.8730 C   0  0  0  0  0  0  0  0  0  0  0  0
   -1.5950   16.7900   16.5650 C   0  0  0  0  0  0  0  0  0  0  0  0
  1 11  1  0
  1  2  1  0
  2  4  1  0
  3  2  2  0
  4  8  2  0
  4  5  1  0
  5  6  1  0
  6 13  1  0
  7  6  2  0
  8  7  1  0
  9 10  1  0
  9  8  1  0
 11  9  1  0
 12 11  2  0
 13 17  2  0
 13 14  1  0
 14 15  2  0
 16 18  1  0
 16 15  1  0
 17 16  1  0
 19 18  1  0
 19 20  2  0
 21 20  1  0
 22 21  2  0
 23 24  2  0
 23 22  1  0
 24 19  1  0
 25  1  1  0
 25 26  1  0
 26 28  1  0
 28 27  1  0
M  END
$$$$
