lig_427
     RDKit          3D

 29 33  0  0  0  0  0  0  0  0999 V2000
   -1.5970   10.3460   16.3650 C   0  0  0  0  0  0  0  0  0  0  0  0
   -2.4260    9.2510   16.1530 N   0  0  0  0  0  0  0  0  0  0  0  0
   -1.7400    8.2760   16.6840 C   0  0  0  0  0  0  0  0  0  0  0  0
   -1.9750    6.8030   16.8710 C   0  0  0  0  0  0  0  0  0  0  0  0
   -2.9660    5.9220   16.5520 C   0  0  0  0  0  0  0  0  0  0  0  0
   -2.5280    4.7220   17.0650 N   0  0  0  0  0  0  0  0  0  0  0  0
   -1.2970    4.7870   17.6370 N   0  0  0  0  0  0  0  0  0  0  0  0
   -0.9800    6.0710   17.5280 C   0  0  0  0  0  0  0  0  0  0  0  0
    0.2230    6.6160   18.0170 N   0  0  0  0  0  0  0  0  0  0  0  0
    0.3990    7.9060   17.8280 C   0  0  0  0  0  0  0  0  0  0  0  0
    1.5510    8.5110   18.2790 N   0  0  0  0  0  0  0  0  0  0  0  0
   -0.5600    8.7300   17.1800 N   0  0  0  0  0  0  0  0  0  0  0  0
   -0.4450   10.0660   17.0120 N   0  0  0  0  0  0  0  0  0  0  0  0
   -2.6970   14.2830   15.0800 C   0  0  0  0  0  0  0  0  0  0  0  0
   -2.7190   13.9430   16.4350 C   0  0  0  0  0  0  0  0  0  0  0  0
   -2.3620   12.6580   16.8540 C   0  0  0  0  0  0  0  0  0  0  0  0
   -1.9720   11.6880   15.9220 C   0  0  0  0  0  0  0  0  0  0  0  0
   -1.9520   12.0350   14.5640 C   0  0  0  0  0  0  0  0  0  0  0  0
   -2.3110   13.3240   14.1450 C   0  0  0  0  0  0  0  0  0  0  0  0
   -2.7570   16.5510   15.7870 C   0  0  0  0  0  0  0  0  0  0  0  0
   -3.0700   15.5690   14.8070 O   0  0  0  0  0  0  0  0  0  0  0  0
   -3.2090    3.4430   16.9770 C   0  0  0  0  0  0  0  0  0  0  0  0
   -4.3680    3.4170   15.9780 C   0  0  0  0  0  0  0  0  0  0  0  0
   -5.7280    3.5460   16.6190 C   0  0  0  0  0  0  0  0  0  0  0  0
   -6.0570    4.6840   17.3680 C   0  0  0  0  0  0  0  0  0  0  0  0
   -7.3200    4.8070   17.9490 C   0  0  0  0  0  0  0  0  0  0  0  0
   -8.2640    3.7960   17.7890 C   0  0  0  0  0  0  0  0  0  0  0  0
   -7.9490    2.6620   17.0460 C   0  0  0  0  0  0  0  0  0  0  0  0
   -6.6880    2.5360   16.4620 C   0  0  0  0  0  0  0  0  0  0  0  0
  1 13  2  0
  2  1  1  0
  2  3  2  0
  3  4  1  0
  3 12  1  0
  4  8  1  0
  5  4  2  0
  5  6  1  0
  6  7  1  0
  8  7  2  0
  8  9  1  0
 10  9  2  0
 10 11  1  0
 12 10  1  0
 13 12  1  0
 14 15  1  0
 15 16  2  0
 17  1  1  0
 17 16  1  0
 18 17  2  0
 19 18  1  0
 19 14  2  0
 21 14  1  0
 21 20  1  0
 22  6  1  0
 23 24  1  0
 23 22  1  0
 24 25  2  0
 25 26  1  0
 27 26  2  0
 28 27  1  0
 29 24  1  0
 29 28  2  0
M  END
$$$$
