lig_327
     RDKit          3D

 30 33  0  0  0  0  0  0  0  0999 V2000
    2.5010  -17.0260   13.6820 C   0  0  0  0  0  0  0  0  0  0  0  0
    2.3330  -17.8890   14.9420 C   0  0  0  0  0  0  0  0  0  0  0  0
   -0.4740  -21.0050   13.8920 N   0  0  0  0  0  0  0  0  0  0  0  0
   -0.4480  -20.5030   15.2840 C   0  0  0  0  0  0  0  0  0  0  0  0
    0.2410  -19.1200   15.3500 C   0  0  0  0  0  0  0  0  0  0  0  0
    1.6090  -19.1540   14.7940 N   0  0  0  0  0  0  0  0  0  0  0  0
    1.5630  -19.6510   13.4050 C   0  0  0  0  0  0  0  0  0  0  0  0
    0.8830  -21.0380   13.2910 C   0  0  0  0  0  0  0  0  0  0  0  0
   -2.8880  -23.8680   14.2260 C   0  0  0  0  0  0  0  0  0  0  0  0
   -2.7560  -24.4570   12.9710 C   0  0  0  0  0  0  0  0  0  0  0  0
   -1.8830  -23.9010   12.0370 C   0  0  0  0  0  0  0  0  0  0  0  0
   -1.1390  -22.7640   12.3610 C   0  0  0  0  0  0  0  0  0  0  0  0
   -1.2370  -22.1540   13.6220 C   0  0  0  0  0  0  0  0  0  0  0  0
   -2.1350  -22.7250   14.5360 C   0  0  0  0  0  0  0  0  0  0  0  0
   -3.0790  -24.9170   16.3520 C   0  0  0  0  0  0  0  0  0  0  0  0
   -3.7070  -24.3030   15.2340 O   0  0  0  0  0  0  0  0  0  0  0  0
    1.4270  -15.9370   13.6200 C   0  0  0  0  0  0  0  0  0  0  0  0
    0.3620  -16.2670   12.5800 C   0  0  0  0  0  0  0  0  0  0  0  0
   -0.2190  -15.0610   12.0240 N   0  0  0  0  0  0  0  0  0  0  0  0
    0.2190  -14.5750   10.8080 C   0  0  0  0  0  0  0  0  0  0  0  0
    1.0350  -15.1540   10.1000 O   0  0  0  0  0  0  0  0  0  0  0  0
   -0.3250  -13.2520   10.3850 C   0  0  0  0  0  0  0  0  0  0  0  0
    0.1390  -12.7250    9.1410 C   0  0  0  0  0  0  0  0  0  0  0  0
   -0.2900  -11.4910    8.6100 C   0  0  0  0  0  0  0  0  0  0  0  0
   -1.2290  -10.8140    9.4060 C   0  0  0  0  0  0  0  0  0  0  0  0
   -1.8290   -9.6370    9.1960 N   0  0  0  0  0  0  0  0  0  0  0  0
   -2.6660   -9.4410   10.2820 O   0  0  0  0  0  0  0  0  0  0  0  0
   -2.5960  -10.4900   11.1840 N   0  0  0  0  0  0  0  0  0  0  0  0
   -1.7140  -11.3540   10.6690 C   0  0  0  0  0  0  0  0  0  0  0  0
   -1.2780  -12.5870   11.1870 C   0  0  0  0  0  0  0  0  0  0  0  0
  1  2  1  0
  3  4  1  0
  4  5  1  0
  6  2  1  0
  6  5  1  0
  7  6  1  0
  8  7  1  0
  8  3  1  0
  9 14  2  0
  9 16  1  0
 10  9  1  0
 11 12  1  0
 11 10  2  0
 12 13  2  0
 13  3  1  0
 13 14  1  0
 16 15  1  0
 17  1  1  0
 18 17  1  0
 19 18  1  0
 20 19  1  0
 21 20  2  0
 22 20  1  0
 22 30  2  0
 23 22  1  0
 24 23  2  0
 24 25  1  0
 25 29  1  0
 26 25  2  0
 26 27  1  0
 27 28  1  0
 29 28  2  0
 29 30  1  0
M  END
$$$$
