lig_007
     RDKit          3D

 32 35  0  0  1  0  0  0  0  0999 V2000
  -12.5880  -14.9720   33.2280 N   0  0  0  0  0  0  0  0  0  0  0  0
  -13.6610  -14.4060   32.5600 C   0  0  0  0  0  0  0  0  0  0  0  0
  -14.7650  -14.2540   33.0750 O   0  0  0  0  0  0  0  0  0  0  0  0
  -13.4700  -16.2150   37.1310 N   0  0  0  0  0  0  0  0  0  0  0  0
  -14.0360  -17.0540   36.0730 C   0  0  0  0  0  0  0  0  0  0  0  0
  -13.9320  -16.4250   34.6780 C   0  0  0  0  0  0  0  0  0  0  0  0
  -12.7010  -15.5310   34.5680 C   0  0  0  0  0  0  0  0  0  0  0  0
  -12.7360  -14.4210   35.6310 C   0  0  0  0  0  0  0  0  0  0  0  0
  -13.5830  -14.7900   36.8540 C   0  0  0  0  0  0  0  0  0  0  0  0
  -13.8630  -16.6130   38.4890 C   0  0  0  0  0  0  0  0  0  0  0  0
  -10.3860  -16.9280   40.0670 C   0  0  0  0  0  0  0  0  0  0  0  0
  -10.7030  -16.8170   41.4220 C   0  0  0  0  0  0  0  0  0  0  0  0
  -12.0310  -16.7100   41.8360 C   0  0  0  0  0  0  0  0  0  0  0  0
  -13.0550  -16.6630   40.8910 C   0  0  0  0  0  0  0  0  0  0  0  0
  -12.7600  -16.7010   39.5220 C   0  0  0  0  0  0  0  0  0  0  0  0
  -11.4160  -16.8220   39.1260 C   0  0  0  0  0  0  0  0  0  0  0  0
   -9.0490  -16.9240   39.6520 N   0  0  0  0  0  0  0  0  0  0  0  0
  -13.3250  -14.0030   31.0880 C   0  0  1  0  0  0  0  0  0  0  0  0
  -14.3820  -13.0800   30.4320 C   0  0  2  0  0  0  0  0  0  0  0  0
  -15.8420  -13.5910   30.4400 C   0  0  0  0  0  0  0  0  0  0  0  0
  -16.4030  -13.3170   29.0450 C   0  0  0  0  0  0  0  0  0  0  0  0
  -15.4630  -12.2860   28.4640 C   0  0  0  0  0  0  0  0  0  0  0  0
  -15.7740  -11.0550   28.9310 F   0  0  0  0  0  0  0  0  0  0  0  0
  -15.5160  -12.2420   27.1210 F   0  0  0  0  0  0  0  0  0  0  0  0
  -14.0990  -12.7010   28.9680 C   0  0  0  0  0  0  0  0  0  0  0  0
  -11.9270  -13.3790   30.9650 C   0  0  0  0  0  0  0  0  0  0  0  0
  -10.8600  -14.1220   30.4250 C   0  0  0  0  0  0  0  0  0  0  0  0
   -9.5890  -13.5620   30.2840 C   0  0  0  0  0  0  0  0  0  0  0  0
   -9.3600  -12.2450   30.6720 C   0  0  0  0  0  0  0  0  0  0  0  0
  -10.4030  -11.4880   31.1980 C   0  0  0  0  0  0  0  0  0  0  0  0
  -11.6760  -12.0480   31.3410 C   0  0  0  0  0  0  0  0  0  0  0  0
  -13.3010  -15.2510   30.3540 O   0  0  0  0  0  0  0  0  0  0  0  0
  1  7  1  0
  2  3  2  0
  2  1  1  0
  4 10  1  0
  5  4  1  0
  6  5  1  0
  7  6  1  0
  7  8  1  0
  8  9  1  0
  9  4  1  0
 10 15  1  0
 11 12  1  0
 12 13  2  0
 14 13  1  0
 15 14  2  0
 16 15  1  0
 16 11  2  0
 17 11  1  0
 18 32  1  6
 18  2  1  0
 19 20  1  6
 19 18  1  0
 21 20  1  0
 22 23  1  0
 22 25  1  0
 22 21  1  0
 24 22  1  0
 25 19  1  0
 26 18  1  0
 26 31  1  0
 27 26  2  0
 28 27  1  0
 28 29  2  0
 29 30  1  0
 30 31  2  0
M  END
$$$$
