lig_016
     RDKit          3D

 27 30  0  0  0  0  0  0  0  0999 V2000
  122.4610  139.2250  102.0950 C   0  0  0  0  0  0  0  0  0  0  0  0
  123.8470  139.2210  102.6650 C   0  0  0  0  0  0  0  0  0  0  0  0
  124.8730  139.8580  102.0050 C   0  0  0  0  0  0  0  0  0  0  0  0
  126.1100  139.7950  102.6060 C   0  0  0  0  0  0  0  0  0  0  0  0
  127.2950  140.4530  101.9700 C   0  0  0  0  0  0  0  0  0  0  0  0
  126.3130  139.1500  103.7730 N   0  0  0  0  0  0  0  0  0  0  0  0
  125.2650  138.5530  104.3650 C   0  0  0  0  0  0  0  0  0  0  0  0
  125.4710  137.8730  105.5470 N   0  0  0  0  0  0  0  0  0  0  0  0
  124.3230  137.5480  106.3940 C   0  0  0  0  0  0  0  0  0  0  0  0
  124.5800  137.9610  107.8640 C   0  0  0  0  0  0  0  0  0  0  0  0
  125.8250  137.4470  108.4810 N   0  0  0  0  0  0  0  0  0  0  0  0
  126.8360  137.1170  107.4480 C   0  0  0  0  0  0  0  0  0  0  0  0
  126.7710  138.0210  106.1980 C   0  0  0  0  0  0  0  0  0  0  0  0
  124.0320  138.5720  103.8330 N   0  0  0  0  0  0  0  0  0  0  0  0
  125.6060  136.2960  109.3670 C   0  0  0  0  0  0  0  0  0  0  0  0
  125.8750  136.6000  110.8500 C   0  0  0  0  0  0  0  0  0  0  0  0
  124.6270  136.5690  111.7400 C   0  0  0  0  0  0  0  0  0  0  0  0
  124.4840  137.7730  112.6180 C   0  0  0  0  0  0  0  0  0  0  0  0
  124.5320  137.7840  113.9990 C   0  0  0  0  0  0  0  0  0  0  0  0
  124.3610  139.0710  114.4290 N   0  0  0  0  0  0  0  0  0  0  0  0
  124.2030  139.9140  113.3530 C   0  0  0  0  0  0  0  0  0  0  0  0
  124.0020  141.3000  113.3170 C   0  0  0  0  0  0  0  0  0  0  0  0
  123.8760  141.9020  112.0610 C   0  0  0  0  0  0  0  0  0  0  0  0
  123.9490  141.1410  110.8980 C   0  0  0  0  0  0  0  0  0  0  0  0
  123.7880  141.9160  109.3670 Cl  0  0  0  0  0  0  0  0  0  0  0  0
  124.1500  139.7580  110.9470 C   0  0  0  0  0  0  0  0  0  0  0  0
  124.2790  139.1290  112.2020 C   0  0  0  0  0  0  0  0  0  0  0  0
  1  2  1  0
  2 14  1  0
  3  4  1  0
  3  2  2  0
  4  6  2  0
  5  4  1  0
  6  7  1  0
  7  8  1  0
  8 13  1  0
  8  9  1  0
  9 10  1  0
 10 11  1  0
 11 15  1  0
 12 11  1  0
 13 12  1  0
 14  7  2  0
 15 16  1  0
 16 17  1  0
 17 18  1  0
 18 19  2  0
 19 20  1  0
 21 20  1  0
 22 21  1  0
 23 22  2  0
 24 26  2  0
 24 23  1  0
 25 24  1  0
 26 27  1  0
 27 18  1  0
 27 21  2  0
M  END
$$$$
