lig_258
     RDKit          3D

 31 34  0  0  0  0  0  0  0  0999 V2000
   -4.4720  -23.5600   19.9170 C   0  0  0  0  0  0  0  0  0  0  0  0
   -2.2270  -21.9710   20.6100 O   0  0  0  0  0  0  0  0  0  0  0  0
   -2.6050  -22.0040   19.4450 C   0  0  0  0  0  0  0  0  0  0  0  0
   -3.6820  -22.7490   19.0110 N   0  0  0  0  0  0  0  0  0  0  0  0
   -1.9180  -21.1760   18.4160 C   0  0  0  0  0  0  0  0  0  0  0  0
   -0.6180  -21.5320   18.0370 C   0  0  0  0  0  0  0  0  0  0  0  0
    0.0670  -20.7840   17.0750 C   0  0  0  0  0  0  0  0  0  0  0  0
   -0.5440  -19.6790   16.4680 C   0  0  0  0  0  0  0  0  0  0  0  0
   -1.8510  -19.3350   16.8390 C   0  0  0  0  0  0  0  0  0  0  0  0
   -2.5380  -20.0810   17.8040 C   0  0  0  0  0  0  0  0  0  0  0  0
    0.1820  -18.9010   15.4700 C   0  0  0  0  0  0  0  0  0  0  0  0
    1.6030  -18.7600   15.3510 C   0  0  0  0  0  0  0  0  0  0  0  0
    1.9700  -17.9610   14.2900 C   0  0  0  0  0  0  0  0  0  0  0  0
    0.6150  -17.3850   13.4240 S   0  0  0  0  0  0  0  0  0  0  0  0
   -0.4670  -18.2050   14.4670 C   0  0  0  0  0  0  0  0  0  0  0  0
   -5.2210  -24.6830   19.2010 C   0  0  0  0  0  0  0  0  0  0  0  0
   -4.3060  -25.8410   18.7830 C   0  0  0  0  0  0  0  0  0  0  0  0
   -4.0200  -25.8640   17.2730 C   0  0  0  0  0  0  0  0  0  0  0  0
   -3.0530  -24.8510   16.8210 N   0  0  0  0  0  0  0  0  0  0  0  0
   -1.8140  -25.4680   16.2900 C   0  0  0  0  0  0  0  0  0  0  0  0
   -0.8060  -24.4330   15.7300 C   0  0  0  0  0  0  0  0  0  0  0  0
   -1.4470  -23.5730   14.7050 N   0  0  0  0  0  0  0  0  0  0  0  0
   -2.6840  -22.9440   15.2120 C   0  0  0  0  0  0  0  0  0  0  0  0
   -3.6560  -24.0170   15.7530 C   0  0  0  0  0  0  0  0  0  0  0  0
   -0.5420  -22.7740   13.9900 C   0  0  0  0  0  0  0  0  0  0  0  0
    0.8390  -22.7540   14.2400 C   0  0  0  0  0  0  0  0  0  0  0  0
    1.7030  -21.9300   13.5060 C   0  0  0  0  0  0  0  0  0  0  0  0
    1.1950  -21.1020   12.5140 C   0  0  0  0  0  0  0  0  0  0  0  0
    2.2550  -20.0880   11.6140 Cl  0  0  0  0  0  0  0  0  0  0  0  0
   -0.1680  -21.0860   12.2510 C   0  0  0  0  0  0  0  0  0  0  0  0
   -1.0240  -21.9130   12.9880 C   0  0  0  0  0  0  0  0  0  0  0  0
  3  2  2  0
  4  3  1  0
  4  1  1  0
  5  3  1  0
  6  5  1  0
  7  6  2  0
  8  9  2  0
  8  7  1  0
  9 10  1  0
 10  5  2  0
 11  8  1  0
 12 11  1  0
 13 12  2  0
 14 13  1  0
 14 15  1  0
 15 11  2  0
 16  1  1  0
 17 16  1  0
 18 17  1  0
 19 18  1  0
 20 19  1  0
 21 20  1  0
 22 23  1  0
 22 21  1  0
 23 24  1  0
 24 19  1  0
 25 26  1  0
 25 22  1  0
 27 26  2  0
 28 27  1  0
 29 28  1  0
 30 28  2  0
 30 31  1  0
 31 25  2  0
M  END
$$$$
