lig_160
     RDKit          3D

 32 36  0  0  1  0  0  0  0  0999 V2000
   -0.5290  -18.1660   10.8730 C   0  0  0  0  0  0  0  0  0  0  0  0
   -0.4960  -19.2330   11.9800 C   0  0  0  0  0  0  0  0  0  0  0  0
   -0.6380  -23.2590   16.1350 C   0  0  0  0  0  0  0  0  0  0  0  0
   -1.0520  -23.0720   17.4580 C   0  0  0  0  0  0  0  0  0  0  0  0
   -0.8250  -21.8500   18.1210 C   0  0  0  0  0  0  0  0  0  0  0  0
   -0.1790  -20.7940   17.4760 C   0  0  0  0  0  0  0  0  0  0  0  0
    0.2280  -20.9820   16.1710 C   0  0  0  0  0  0  0  0  0  0  0  0
   -0.0050  -22.1980   15.5130 C   0  0  0  0  0  0  0  0  0  0  0  0
    0.5690  -22.0760   14.1410 C   0  0  1  0  0  0  0  0  0  0  0  0
   -0.4080  -22.1770   12.9790 C   0  0  0  0  0  0  0  0  0  0  0  0
    0.2070  -21.5590   11.7120 C   0  0  0  0  0  0  0  0  0  0  0  0
    0.6490  -20.1560   11.8630 N   0  0  0  0  0  0  0  0  0  0  0  0
    1.6230  -20.0230   12.9690 C   0  0  0  0  0  0  0  0  0  0  0  0
    1.0480  -20.6340   14.2110 C   0  0  0  0  0  0  0  0  0  0  0  0
    0.8730  -20.0350   15.3560 N   0  0  0  0  0  0  0  0  0  0  0  0
   -1.6050  -25.4170   15.9430 C   0  0  0  0  0  0  0  0  0  0  0  0
   -0.7890  -24.3910   15.3900 O   0  0  0  0  0  0  0  0  0  0  0  0
   -0.7950  -18.7540    9.4820 C   0  0  0  0  0  0  0  0  0  0  0  0
   -0.2120  -17.8840    8.3670 C   0  0  0  0  0  0  0  0  0  0  0  0
    0.0440  -16.5290    8.8040 N   0  0  0  0  0  0  0  0  0  0  0  0
    0.6590  -15.6120    7.9770 C   0  0  0  0  0  0  0  0  0  0  0  0
    1.1830  -15.8790    6.9050 O   0  0  0  0  0  0  0  0  0  0  0  0
    0.5930  -14.2110    8.5440 C   0  0  0  0  0  0  0  0  0  0  0  0
   -0.2990  -13.9840    9.5190 C   0  0  0  0  0  0  0  0  0  0  0  0
   -0.3640  -12.6530   10.1270 C   0  0  0  0  0  0  0  0  0  0  0  0
   -1.1650  -12.4220   11.2510 C   0  0  0  0  0  0  0  0  0  0  0  0
   -1.2150  -11.1530   11.8290 C   0  0  0  0  0  0  0  0  0  0  0  0
   -0.4710  -10.1060   11.2860 C   0  0  0  0  0  0  0  0  0  0  0  0
    0.3250  -10.3250   10.1610 C   0  0  0  0  0  0  0  0  0  0  0  0
    0.3900  -11.6000    9.5770 C   0  0  0  0  0  0  0  0  0  0  0  0
    1.2080  -11.8190    8.3250 C   0  0  0  0  0  0  0  0  0  0  0  0
    1.4660  -13.2340    8.0620 N   0  0  0  0  0  0  0  0  0  0  0  0
  1  2  1  0
  3  4  2  0
  4  5  1  0
  6  5  2  0
  7  6  1  0
  8  3  1  0
  8  7  2  0
  9 10  1  6
  9 14  1  0
  9  8  1  0
 11 12  1  0
 11 10  1  0
 12  2  1  0
 12 13  1  0
 13 14  1  0
 14 15  2  0
 15  7  1  0
 17 16  1  0
 17  3  1  0
 18  1  1  0
 19 20  1  0
 19 18  1  0
 21 23  1  0
 21 20  1  0
 22 21  2  0
 23 24  2  0
 24 25  1  0
 25 26  2  0
 26 27  1  0
 28 27  2  0
 29 28  1  0
 30 25  1  0
 30 29  2  0
 31 30  1  0
 32 31  1  0
 32 23  1  0
M  END
$$$$
