lig_160
     RDKit          3D

 39 42  0  0  0  0  0  0  0  0999 V2000
   -0.8940  -20.1670   13.3380 N   0  0  0  0  0  0  0  0  0  0  0  0
   -1.0480  -21.5180   12.7530 C   0  0  0  0  0  0  0  0  0  0  0  0
    0.3150  -22.2120   12.5020 C   0  0  0  0  0  0  0  0  0  0  0  0
    1.2240  -22.2540   13.6770 N   0  0  0  0  0  0  0  0  0  0  0  0
    1.3450  -20.8810   14.2190 C   0  0  0  0  0  0  0  0  0  0  0  0
    0.0040  -20.1630   14.5140 C   0  0  0  0  0  0  0  0  0  0  0  0
    0.1030  -17.0100   11.9040 C   0  0  0  0  0  0  0  0  0  0  0  0
   -0.1260  -17.9790   12.8110 N   0  0  0  0  0  0  0  0  0  0  0  0
   -0.6520  -19.1460   12.4050 C   0  0  0  0  0  0  0  0  0  0  0  0
   -0.9020  -19.3680   11.0650 C   0  0  0  0  0  0  0  0  0  0  0  0
   -0.6320  -18.3430   10.1750 C   0  0  0  0  0  0  0  0  0  0  0  0
   -0.1250  -17.1570   10.5890 N   0  0  0  0  0  0  0  0  0  0  0  0
   -0.2640  -14.5340   12.2830 C   0  0  0  0  0  0  0  0  0  0  0  0
    0.7320  -15.7060   12.3870 C   0  0  0  0  0  0  0  0  0  0  0  0
    1.9710  -15.3530   11.5410 C   0  0  0  0  0  0  0  0  0  0  0  0
    1.1510  -15.8840   13.8550 C   0  0  0  0  0  0  0  0  0  0  0  0
   -0.8770  -18.5780    8.6970 C   0  0  0  0  0  0  0  0  0  0  0  0
   -1.7710  -17.6900    8.1680 F   0  0  0  0  0  0  0  0  0  0  0  0
   -1.4000  -19.8120    8.4420 F   0  0  0  0  0  0  0  0  0  0  0  0
    0.2380  -18.4770    7.9200 F   0  0  0  0  0  0  0  0  0  0  0  0
    0.7620  -23.2350   14.6690 C   0  0  0  0  0  0  0  0  0  0  0  0
   -0.3230  -24.1810   14.1310 C   0  0  0  0  0  0  0  0  0  0  0  0
   -1.1740  -24.8710   15.2070 C   0  0  0  0  0  0  0  0  0  0  0  0
   -2.5410  -24.2290   15.4380 C   0  0  0  0  0  0  0  0  0  0  0  0
   -2.4400  -23.0370   16.2610 N   0  0  0  0  0  0  0  0  0  0  0  0
   -3.5410  -22.5850   16.9460 C   0  0  0  0  0  0  0  0  0  0  0  0
   -4.6370  -23.1320   16.8630 O   0  0  0  0  0  0  0  0  0  0  0  0
   -3.3180  -21.4560   17.7120 N   0  0  0  0  0  0  0  0  0  0  0  0
   -4.4510  -20.8500   18.4160 C   0  0  0  0  0  0  0  0  0  0  0  0
   -4.6100  -19.3560   18.0790 C   0  0  0  0  0  0  0  0  0  0  0  0
   -3.3680  -18.5970   18.3470 N   0  0  0  0  0  0  0  0  0  0  0  0
   -2.1370  -19.3790   18.5320 C   0  0  0  0  0  0  0  0  0  0  0  0
   -2.1150  -20.6190   17.6150 C   0  0  0  0  0  0  0  0  0  0  0  0
   -3.4390  -17.2500   18.6710 C   0  0  0  0  0  0  0  0  0  0  0  0
   -3.5040  -16.7920   19.9930 C   0  0  0  0  0  0  0  0  0  0  0  0
   -3.5720  -15.4270   20.2870 C   0  0  0  0  0  0  0  0  0  0  0  0
   -3.5680  -14.5260   19.2400 C   0  0  0  0  0  0  0  0  0  0  0  0
   -3.5010  -14.8970   17.9490 N   0  0  0  0  0  0  0  0  0  0  0  0
   -3.4350  -16.2330   17.7060 C   0  0  0  0  0  0  0  0  0  0  0  0
  1  6  1  0
  2  1  1  0
  3  2  1  0
  3  4  1  0
  4  5  1  0
  4 21  1  0
  5  6  1  0
  7 14  1  0
  7  8  2  0
  9  8  1  0
  9  1  1  0
 10  9  2  0
 11 12  2  0
 11 10  1  0
 12  7  1  0
 13 14  1  0
 14 16  1  0
 15 14  1  0
 17 11  1  0
 18 17  1  0
 19 17  1  0
 20 17  1  0
 22 21  1  0
 22 23  1  0
 23 24  1  0
 24 25  1  0
 25 26  1  0
 26 28  1  0
 27 26  2  0
 28 29  1  0
 30 31  1  0
 30 29  1  0
 31 32  1  0
 31 34  1  0
 33 28  1  0
 33 32  1  0
 34 35  2  0
 35 36  1  0
 37 36  2  0
 38 37  1  0
 39 38  2  0
 39 34  1  0
M  END
$$$$
