lig_258
     RDKit          3D

 33 37  0  0  0  0  0  0  0  0999 V2000
   -4.4680    9.9620   15.6450 N   0  0  0  0  0  0  0  0  0  0  0  0
   -5.6200   10.6800   15.7420 N   0  0  0  0  0  0  0  0  0  0  0  0
   -5.2050   11.9290   16.0000 C   0  0  0  0  0  0  0  0  0  0  0  0
   -3.8220   11.9870   16.0660 C   0  0  0  0  0  0  0  0  0  0  0  0
   -3.3410   10.7160   15.8450 C   0  0  0  0  0  0  0  0  0  0  0  0
   -2.0440   10.2710   15.8130 N   0  0  0  0  0  0  0  0  0  0  0  0
   -1.1190   11.1900   16.0110 C   0  0  0  0  0  0  0  0  0  0  0  0
    0.2140   10.8580   15.9980 N   0  0  0  0  0  0  0  0  0  0  0  0
   -1.4630   12.5490   16.2640 N   0  0  0  0  0  0  0  0  0  0  0  0
   -0.5760   13.5300   16.5360 N   0  0  0  0  0  0  0  0  0  0  0  0
   -1.4060   14.5780   16.7010 C   0  0  0  0  0  0  0  0  0  0  0  0
   -2.7570   14.2980   16.5710 N   0  0  0  0  0  0  0  0  0  0  0  0
   -2.7430   13.0180   16.3090 C   0  0  0  0  0  0  0  0  0  0  0  0
   -0.8860   16.0170   17.0290 C   0  0  0  0  0  0  0  0  0  0  0  0
   -1.5420   16.9430   17.8160 C   0  0  0  0  0  0  0  0  0  0  0  0
   -0.7270   18.1010   17.8480 C   0  0  0  0  0  0  0  0  0  0  0  0
    0.3750   17.8100   17.0800 C   0  0  0  0  0  0  0  0  0  0  0  0
    0.2900   16.5510   16.5800 O   0  0  0  0  0  0  0  0  0  0  0  0
   -4.5260    8.5430   15.3560 C   0  0  0  0  0  0  0  0  0  0  0  0
   -4.6450    7.7080   16.6270 C   0  0  0  0  0  0  0  0  0  0  0  0
   -4.5510    6.2150   16.3100 C   0  0  0  0  0  0  0  0  0  0  0  0
   -1.1720    4.3970   18.3030 C   0  0  0  0  0  0  0  0  0  0  0  0
   -1.0750    5.6920   17.7970 C   0  0  0  0  0  0  0  0  0  0  0  0
   -2.1700    6.2770   17.1470 C   0  0  0  0  0  0  0  0  0  0  0  0
   -3.3710    5.5750   16.9940 C   0  0  0  0  0  0  0  0  0  0  0  0
   -3.4660    4.2800   17.5120 C   0  0  0  0  0  0  0  0  0  0  0  0
   -2.3730    3.6980   18.1590 C   0  0  0  0  0  0  0  0  0  0  0  0
   -0.1900    3.7040   18.9560 O   0  0  0  0  0  0  0  0  0  0  0  0
   -0.4580    2.3640   19.3340 C   0  0  0  0  0  0  0  0  0  0  0  0
    0.7610    1.4670   19.5050 C   0  0  0  0  0  0  0  0  0  0  0  0
    1.6960    1.4270   18.7130 O   0  0  0  0  0  0  0  0  0  0  0  0
    0.1990   -0.5780   20.4990 C   0  0  0  0  0  0  0  0  0  0  0  0
    0.6870    0.7540   20.6640 O   0  0  0  0  0  0  0  0  0  0  0  0
  1  2  1  0
  1  5  1  0
  2  3  2  0
  3  4  1  0
  4 13  1  0
  5  4  2  0
  6  5  1  0
  6  7  2  0
  7  9  1  0
  8  7  1  0
  9 13  1  0
  9 10  1  0
 10 11  2  0
 11 14  1  0
 12 11  1  0
 13 12  2  0
 14 15  2  0
 15 16  1  0
 17 16  2  0
 18 14  1  0
 18 17  1  0
 19  1  1  0
 19 20  1  0
 21 20  1  0
 21 25  1  0
 22 28  1  0
 23 22  1  0
 24 23  2  0
 25 24  1  0
 25 26  2  0
 26 27  1  0
 27 22  2  0
 28 29  1  0
 29 30  1  0
 30 33  1  0
 31 30  2  0
 32 33  1  0
M  END
$$$$
