lig_150
     RDKit          3D

 26 29  0  0  1  0  0  0  0  0999 V2000
   -5.3750    6.7900   15.2550 C   0  0  0  0  0  0  0  0  0  0  0  0
   -4.1800    7.0810   16.0180 N   0  0  0  0  0  0  0  0  0  0  0  0
   -3.5670    8.3280   15.9830 C   0  0  0  0  0  0  0  0  0  0  0  0
   -4.0330    9.3570   15.5360 O   0  0  0  0  0  0  0  0  0  0  0  0
   -2.2300    8.1730   16.5490 C   0  0  0  0  0  0  0  0  0  0  0  0
   -1.1870    9.0160   16.7990 C   0  0  0  0  0  0  0  0  0  0  0  0
   -0.0190    8.5290   17.3010 N   0  0  0  0  0  0  0  0  0  0  0  0
    0.0820    7.2120   17.5210 C   0  0  0  0  0  0  0  0  0  0  0  0
    1.2730    6.7440   18.0250 N   0  0  0  0  0  0  0  0  0  0  0  0
   -0.8980    6.3250   17.3250 N   0  0  0  0  0  0  0  0  0  0  0  0
   -2.0360    6.8400   16.8310 C   0  0  0  0  0  0  0  0  0  0  0  0
   -3.2700    6.0310   16.4850 C   0  0  1  0  0  0  0  0  0  0  0  0
   -1.2010   10.4600   16.6020 C   0  0  0  0  0  0  0  0  0  0  0  0
   -1.9400   11.5180   17.1010 C   0  0  0  0  0  0  0  0  0  0  0  0
   -1.4390   12.6970   16.4960 C   0  0  0  0  0  0  0  0  0  0  0  0
   -0.4190   12.2950   15.6670 C   0  0  0  0  0  0  0  0  0  0  0  0
   -0.2660   10.9490   15.7270 O   0  0  0  0  0  0  0  0  0  0  0  0
   -3.7690    5.2630   17.7220 C   0  0  0  0  0  0  0  0  0  0  0  0
   -5.1800    4.7300   17.6270 C   0  0  0  0  0  0  0  0  0  0  0  0
   -6.2280    5.3580   18.3160 C   0  0  0  0  0  0  0  0  0  0  0  0
   -7.5260    4.8480   18.2350 C   0  0  0  0  0  0  0  0  0  0  0  0
   -7.7750    3.7100   17.4740 C   0  0  0  0  0  0  0  0  0  0  0  0
   -9.0220    3.2280   17.4000 F   0  0  0  0  0  0  0  0  0  0  0  0
   -6.7520    3.0660   16.7950 C   0  0  0  0  0  0  0  0  0  0  0  0
   -5.4630    3.5790   16.8820 C   0  0  0  0  0  0  0  0  0  0  0  0
   -4.4750    2.9460   16.2340 F   0  0  0  0  0  0  0  0  0  0  0  0
  1  2  1  0
  2 12  1  0
  3  2  1  0
  3  5  1  0
  4  3  2  0
  5  6  2  0
  5 11  1  0
  6  7  1  0
  7  8  2  0
  8  9  1  0
 10  8  1  0
 11 10  2  0
 12 11  1  0
 12 18  1  1
 13  6  1  0
 13 14  2  0
 15 14  1  0
 16 17  1  0
 16 15  2  0
 17 13  1  0
 19 18  1  0
 19 20  1  0
 21 20  2  0
 22 21  1  0
 23 22  1  0
 24 25  1  0
 24 22  2  0
 25 19  2  0
 26 25  1  0
M  END
$$$$
