lig_275
     RDKit          3D

 34 38  0  0  1  0  0  0  0  0999 V2000
   -1.0650  -22.3590   13.2040 C   0  0  1  0  0  0  0  0  0  0  0  0
   -1.2730  -20.8500   13.4000 C   0  0  0  0  0  0  0  0  0  0  0  0
   -0.2520  -20.2310   14.3530 C   0  0  0  0  0  0  0  0  0  0  0  0
    1.2030  -20.5160   13.9390 C   0  0  1  0  0  0  0  0  0  0  0  0
    1.4030  -22.0330   13.7910 C   0  0  0  0  0  0  0  0  0  0  0  0
    0.3910  -22.6870   12.8500 C   0  0  0  0  0  0  0  0  0  0  0  0
   -2.6150  -23.9150   14.3530 C   0  0  0  0  0  0  0  0  0  0  0  0
   -3.2890  -24.0950   13.3400 O   0  0  0  0  0  0  0  0  0  0  0  0
   -1.5000  -23.1110   14.3740 N   0  0  0  0  0  0  0  0  0  0  0  0
   -2.1970  -22.1780   19.3000 C   0  0  0  0  0  0  0  0  0  0  0  0
   -2.2420  -22.8140   17.9100 C   0  0  2  0  0  0  0  0  0  0  0  0
   -3.6200  -22.6070   17.2610 C   0  0  0  0  0  0  0  0  0  0  0  0
   -4.0970  -23.7820   16.4010 C   0  0  0  0  0  0  0  0  0  0  0  0
   -3.0010  -24.5710   15.6790 C   0  0  2  0  0  0  0  0  0  0  0  0
   -1.7910  -24.9090   16.5610 C   0  0  0  0  0  0  0  0  0  0  0  0
   -1.8570  -24.2940   17.9620 C   0  0  0  0  0  0  0  0  0  0  0  0
   -1.2770  -22.1350   17.0910 O   0  0  0  0  0  0  0  0  0  0  0  0
    1.5870  -19.7070   12.6770 C   0  0  0  0  0  0  0  0  0  0  0  0
    2.0200  -18.2650   12.9890 C   0  0  0  0  0  0  0  0  0  0  0  0
    0.8790  -17.3780   13.2770 N   0  0  0  0  0  0  0  0  0  0  0  0
   -0.2530  -17.6330   12.3550 C   0  0  0  0  0  0  0  0  0  0  0  0
   -0.3040  -16.7140   11.1120 C   0  0  0  0  0  0  0  0  0  0  0  0
   -0.4010  -15.2830   11.4920 N   0  0  0  0  0  0  0  0  0  0  0  0
    0.1160  -14.9950   12.8520 C   0  0  0  0  0  0  0  0  0  0  0  0
    1.2710  -15.9440   13.2410 C   0  0  0  0  0  0  0  0  0  0  0  0
    0.1700  -14.4700   10.4950 C   0  0  0  0  0  0  0  0  0  0  0  0
    1.1240  -14.9680    9.6720 N   0  0  0  0  0  0  0  0  0  0  0  0
    1.6400  -14.1690    8.6990 C   0  0  0  0  0  0  0  0  0  0  0  0
    1.2630  -12.8590    8.4850 C   0  0  0  0  0  0  0  0  0  0  0  0
    0.3140  -12.3740    9.3450 C   0  0  0  0  0  0  0  0  0  0  0  0
   -0.2410  -13.1590   10.3410 C   0  0  0  0  0  0  0  0  0  0  0  0
   -1.2560  -12.3670   11.0680 C   0  0  0  0  0  0  0  0  0  0  0  0
   -0.8680  -10.9720   10.5780 C   0  0  0  0  0  0  0  0  0  0  0  0
   -0.1770  -11.0940    9.3120 O   0  0  0  0  0  0  0  0  0  0  0  0
  1  2  1  0
  1  9  1  1
  2  3  1  0
  4 18  1  6
  4  3  1  0
  5  4  1  0
  6  1  1  0
  6  5  1  0
  7  9  1  0
  8  7  2  0
 11 16  1  0
 11 10  1  1
 12 11  1  0
 13 12  1  0
 14  7  1  6
 14 13  1  0
 14 15  1  0
 15 16  1  0
 17 11  1  0
 18 19  1  0
 19 20  1  0
 21 20  1  0
 22 23  1  0
 22 21  1  0
 23 24  1  0
 24 25  1  0
 25 20  1  0
 26 23  1  0
 27 26  2  0
 28 27  1  0
 29 28  2  0
 29 30  1  0
 30 31  2  0
 31 26  1  0
 31 32  1  0
 33 32  1  0
 34 30  1  0
 34 33  1  0
M  END
$$$$
