lig_003
     RDKit          3D

 29 33  0  0  0  0  0  0  0  0999 V2000
    9.6700    7.7650  -11.6210 C   0  0  0  0  0  0  0  0  0  0  0  0
    8.6320    6.7480  -11.4370 N   0  0  0  0  0  0  0  0  0  0  0  0
    9.1240    5.3630  -11.3270 C   0  0  0  0  0  0  0  0  0  0  0  0
    8.8810    4.4580  -12.5610 C   0  0  0  0  0  0  0  0  0  0  0  0
    7.4710    4.4760  -13.0030 N   0  0  0  0  0  0  0  0  0  0  0  0
    6.6580    5.5860  -12.4720 C   0  0  0  0  0  0  0  0  0  0  0  0
    7.5120    6.8710  -12.3890 C   0  0  0  0  0  0  0  0  0  0  0  0
    6.8750    3.2490  -13.2760 C   0  0  0  0  0  0  0  0  0  0  0  0
    5.6170    2.8920  -12.7550 C   0  0  0  0  0  0  0  0  0  0  0  0
    4.9990    1.6610  -13.0430 C   0  0  0  0  0  0  0  0  0  0  0  0
    5.6120    0.7430  -13.8880 C   0  0  0  0  0  0  0  0  0  0  0  0
    6.8440    1.0760  -14.4160 C   0  0  0  0  0  0  0  0  0  0  0  0
    7.4720    2.3020  -14.1150 C   0  0  0  0  0  0  0  0  0  0  0  0
    8.7330    2.4230  -14.9250 C   0  0  0  0  0  0  0  0  0  0  0  0
    9.0000    0.9640  -15.3180 C   0  0  0  0  0  0  0  0  0  0  0  0
    7.6350    0.2840  -15.4110 C   0  0  0  0  0  0  0  0  0  0  0  0
   11.1220    7.3060  -11.4160 C   0  0  0  0  0  0  0  0  0  0  0  0
   11.6950    7.8240  -10.0950 C   0  0  0  0  0  0  0  0  0  0  0  0
   10.9420    7.2710   -9.0160 O   0  0  0  0  0  0  0  0  0  0  0  0
   11.7760    6.4540   -3.6710 O   0  0  0  0  0  0  0  0  0  0  0  0
   11.6340    7.5920   -4.0630 C   0  0  0  0  0  0  0  0  0  0  0  0
   11.6560    8.7450   -3.3070 N   0  0  0  0  0  0  0  0  0  0  0  0
   11.4520    9.9400   -4.0900 C   0  0  0  0  0  0  0  0  0  0  0  0
   11.2940    9.3960   -5.4700 C   0  0  0  0  0  0  0  0  0  0  0  0
   11.0730   10.0550   -6.6630 C   0  0  0  0  0  0  0  0  0  0  0  0
   10.9620    9.2800   -7.8260 C   0  0  0  0  0  0  0  0  0  0  0  0
   11.0720    7.8730   -7.7940 C   0  0  0  0  0  0  0  0  0  0  0  0
   11.2970    7.2180   -6.5840 C   0  0  0  0  0  0  0  0  0  0  0  0
   11.4010    8.0060   -5.4510 C   0  0  0  0  0  0  0  0  0  0  0  0
  1  2  1  0
  1 17  1  0
  2  3  1  0
  4  3  1  0
  5  4  1  0
  5  6  1  0
  6  7  1  0
  7  2  1  0
  8  5  1  0
  8  9  2  0
 10  9  1  0
 11 10  2  0
 12 13  2  0
 12 11  1  0
 13  8  1  0
 14 13  1  0
 15 14  1  0
 16 15  1  0
 16 12  1  0
 17 18  1  0
 18 19  1  0
 19 27  1  0
 21 20  2  0
 21 22  1  0
 23 22  1  0
 24 29  2  0
 24 23  1  0
 25 24  1  0
 26 27  1  0
 26 25  2  0
 27 28  2  0
 28 29  1  0
 29 21  1  0
M  END
$$$$
