lig_003
     RDKit          3D

 28 30  0  0  0  0  0  0  0  0999 V2000
   12.3650    0.3210   60.4010 C   0  0  0  0  0  0  0  0  0  0  0  0
   13.1510   -0.3250   61.3570 C   0  0  0  0  0  0  0  0  0  0  0  0
   14.4570   -0.6990   61.0310 C   0  0  0  0  0  0  0  0  0  0  0  0
   14.9880   -0.4150   59.7650 C   0  0  0  0  0  0  0  0  0  0  0  0
   14.1820    0.2330   58.8170 C   0  0  0  0  0  0  0  0  0  0  0  0
   12.8750    0.6100   59.1340 C   0  0  0  0  0  0  0  0  0  0  0  0
   10.7020    0.8100   60.8000 S   0  0  0  0  0  0  0  0  0  0  0  0
   10.0030    0.9760   59.5380 O   0  0  0  0  0  0  0  0  0  0  0  0
   10.7660    1.9000   61.7550 O   0  0  0  0  0  0  0  0  0  0  0  0
    9.2230   -1.5740   63.7170 C   0  0  0  0  0  0  0  0  0  0  0  0
    8.8030   -2.7050   63.0030 C   0  0  0  0  0  0  0  0  0  0  0  0
    8.9490   -2.7540   61.6130 C   0  0  0  0  0  0  0  0  0  0  0  0
    9.5240   -1.6810   60.9310 C   0  0  0  0  0  0  0  0  0  0  0  0
    9.9610   -0.5640   61.6500 C   0  0  0  0  0  0  0  0  0  0  0  0
    9.8120   -0.5020   63.0380 C   0  0  0  0  0  0  0  0  0  0  0  0
    9.2220   -2.6380   65.9130 N   0  0  0  0  0  0  0  0  0  0  0  0
    9.0930   -1.4820   65.1950 C   0  0  0  0  0  0  0  0  0  0  0  0
    8.8460   -0.4190   65.7470 O   0  0  0  0  0  0  0  0  0  0  0  0
   16.3480   -0.8200   59.3790 C   0  0  0  0  0  0  0  0  0  0  0  0
   17.0200   -0.2760   58.3500 C   0  0  0  0  0  0  0  0  0  0  0  0
   18.3840   -0.6530   57.9460 C   0  0  0  0  0  0  0  0  0  0  0  0
   19.2160   -1.4480   58.7500 C   0  0  0  0  0  0  0  0  0  0  0  0
   20.4950   -1.8030   58.3090 C   0  0  0  0  0  0  0  0  0  0  0  0
   20.9400   -1.3760   57.0630 C   0  0  0  0  0  0  0  0  0  0  0  0
   22.1650   -1.7220   56.6470 F   0  0  0  0  0  0  0  0  0  0  0  0
   20.1320   -0.6050   56.2420 C   0  0  0  0  0  0  0  0  0  0  0  0
   18.8610   -0.2550   56.6860 C   0  0  0  0  0  0  0  0  0  0  0  0
   18.0880    0.4860   55.8770 F   0  0  0  0  0  0  0  0  0  0  0  0
  1  7  1  0
  1  2  1  0
  3  2  2  0
  4  3  1  0
  5  6  1  0
  5  4  2  0
  6  1  2  0
  7 14  1  0
  7  9  2  0
  8  7  2  0
 10 17  1  0
 11 10  1  0
 12 11  2  0
 13 12  1  0
 13 14  2  0
 14 15  1  0
 15 10  2  0
 17 18  2  0
 17 16  1  0
 19  4  1  0
 20 19  2  0
 21 20  1  0
 21 22  1  0
 23 22  2  0
 24 23  1  0
 25 24  1  0
 26 27  1  0
 26 24  2  0
 27 21  2  0
 28 27  1  0
M  END
$$$$
