lig_023
     RDKit          3D

 22 24  0  0  0  0  0  0  0  0999 V2000
   22.7180   15.9710    8.0920 C   0  0  0  0  0  0  0  0  0  0  0  0
   22.5050   16.9150    7.0840 C   0  0  0  0  0  0  0  0  0  0  0  0
   22.8940   16.6430    5.7670 C   0  0  0  0  0  0  0  0  0  0  0  0
   23.4910   15.4240    5.4510 C   0  0  0  0  0  0  0  0  0  0  0  0
   23.9540   15.0950    3.8280 Cl  0  0  0  0  0  0  0  0  0  0  0  0
   23.7100   14.4710    6.4390 C   0  0  0  0  0  0  0  0  0  0  0  0
   23.3380   14.7570    7.7540 C   0  0  0  0  0  0  0  0  0  0  0  0
   22.3760   16.1190    9.4070 O   0  0  0  0  0  0  0  0  0  0  0  0
   21.0010   16.1140    9.7840 C   0  0  0  0  0  0  0  0  0  0  0  0
   20.7660   17.0180   10.9950 C   0  0  0  0  0  0  0  0  0  0  0  0
   17.8680   21.6440    9.5880 F   0  0  0  0  0  0  0  0  0  0  0  0
   18.5600   20.5480    9.9260 C   0  0  0  0  0  0  0  0  0  0  0  0
   18.2280   19.8600   11.0860 C   0  0  0  0  0  0  0  0  0  0  0  0
   18.9470   18.7160   11.4380 C   0  0  0  0  0  0  0  0  0  0  0  0
   20.0010   18.2650   10.6280 C   0  0  0  0  0  0  0  0  0  0  0  0
   20.3180   18.9720    9.4580 C   0  0  0  0  0  0  0  0  0  0  0  0
   19.5970   20.1150    9.1090 C   0  0  0  0  0  0  0  0  0  0  0  0
   23.5270   13.7960    8.7210 O   0  0  0  0  0  0  0  0  0  0  0  0
   24.7820   13.0720    8.6240 C   0  0  0  0  0  0  0  0  0  0  0  0
   26.0780   13.8810    8.3960 C   0  0  0  0  0  0  0  0  0  0  0  0
   26.3790   13.7880    9.8340 N   0  0  0  0  0  0  0  0  0  0  0  0
   25.4300   12.6700    9.9660 C   0  0  0  0  0  0  0  0  0  0  0  0
  1  8  1  0
  2  1  1  0
  3  2  2  0
  4  3  1  0
  4  6  2  0
  5  4  1  0
  6  7  1  0
  7  1  2  0
  7 18  1  0
  8  9  1  0
  9 10  1  0
 11 12  1  0
 12 13  1  0
 13 14  2  0
 15 10  1  0
 15 14  1  0
 16 15  2  0
 17 16  1  0
 17 12  2  0
 19 18  1  0
 19 22  1  0
 20 19  1  0
 20 21  1  0
 21 22  1  0
M  END
$$$$
