lig_010
     RDKit          3D

 29 32  0  0  1  0  0  0  0  0999 V2000
   12.1680    2.2740   59.0750 C   0  0  0  0  0  0  0  0  0  0  0  0
   12.3960    0.8450   58.8190 N   0  0  0  0  0  0  0  0  0  0  0  0
   13.4240    0.2820   59.7250 C   0  0  0  0  0  0  0  0  0  0  0  0
   14.8640    0.2880   59.1690 C   0  0  0  0  0  0  0  0  0  0  0  0
   14.9740   -0.4450   57.8810 N   0  0  0  0  0  0  0  0  0  0  0  0
   16.0440   -0.0840   57.0930 C   0  0  0  0  0  0  0  0  0  0  0  0
   15.9190    0.5940   55.9530 N   0  0  0  0  0  0  0  0  0  0  0  0
   17.4080    0.8880   55.3150 S   0  0  0  0  0  0  0  0  0  0  0  0
   18.3080    0.0850   56.5310 C   0  0  0  0  0  0  0  0  0  0  0  0
   19.6990   -0.0830   56.6460 C   0  0  0  0  0  0  0  0  0  0  0  0
   20.1940   -0.8050   57.7350 C   0  0  0  0  0  0  0  0  0  0  0  0
   19.3280   -1.3490   58.6750 C   0  0  0  0  0  0  0  0  0  0  0  0
   17.9460   -1.1710   58.5520 C   0  0  0  0  0  0  0  0  0  0  0  0
   17.4090   -0.4290   57.4690 C   0  0  0  0  0  0  0  0  0  0  0  0
   13.6720   -0.6310   57.1980 C   0  0  0  0  0  0  0  0  0  0  0  0
   12.7570    0.5960   57.3980 C   0  0  0  0  0  0  0  0  0  0  0  0
   10.6910    2.7090   59.0470 C   0  0  0  0  0  0  0  0  0  0  0  0
    9.8660    0.0350   62.2580 C   0  0  1  0  0  0  0  0  0  0  0  0
    9.6560   -0.1010   60.7410 C   0  0  0  0  0  0  0  0  0  0  0  0
    9.0130    1.1490   60.1450 C   0  0  0  0  0  0  0  0  0  0  0  0
    9.8920    2.4070   60.3360 C   0  0  1  0  0  0  0  0  0  0  0  0
   10.7850    2.2970   61.5850 C   0  0  0  0  0  0  0  0  0  0  0  0
   10.1150    1.4900   62.6910 C   0  0  0  0  0  0  0  0  0  0  0  0
    8.8550   -1.1120   64.1990 C   0  0  0  0  0  0  0  0  0  0  0  0
    9.9080   -1.3800   64.7560 O   0  0  0  0  0  0  0  0  0  0  0  0
    8.7320   -0.5150   62.9820 N   0  0  0  0  0  0  0  0  0  0  0  0
    7.6170   -1.3480   64.6970 O   0  0  0  0  0  0  0  0  0  0  0  0
    7.6240    0.3350   66.4390 C   0  0  0  0  0  0  0  0  0  0  0  0
    6.9220   -0.2000   65.2050 C   0  0  0  0  0  0  0  0  0  0  0  0
  2  1  1  0
  2  3  1  0
  4  3  1  0
  5  4  1  0
  6 14  1  0
  6  5  1  0
  7  6  2  0
  8  7  1  0
  8  9  1  0
  9 10  2  0
  9 14  1  0
 10 11  1  0
 11 12  2  0
 13 12  1  0
 14 13  2  0
 15 16  1  0
 15  5  1  0
 16  2  1  0
 17  1  1  0
 18 23  1  0
 18 26  1  1
 19 18  1  0
 20 21  1  0
 20 19  1  0
 21 17  1  6
 21 22  1  0
 22 23  1  0
 24 27  1  0
 24 25  2  0
 26 24  1  0
 27 29  1  0
 29 28  1  0
M  END
$$$$
