lig_026
     RDKit          3D

 25 28  0  0  1  0  0  0  0  0999 V2000
  184.6850  169.7960  170.9620 C   0  0  0  0  0  0  0  0  0  0  0  0
  185.6970  170.5440  171.8420 C   0  0  1  0  0  0  0  0  0  0  0  0
  185.0750  171.8750  172.3210 C   0  0  0  0  0  0  0  0  0  0  0  0
  185.8310  172.5140  173.3850 N   0  0  0  0  0  0  0  0  0  0  0  0
  185.5650  173.9400  173.5950 C   0  0  0  0  0  0  0  0  0  0  0  0
  186.7920  174.9170  173.7000 C   0  0  1  0  0  0  0  0  0  0  0  0
  188.0890  174.3480  174.1330 N   0  0  0  0  0  0  0  0  0  0  0  0
  187.9610  172.9510  174.5630 C   0  0  0  0  0  0  0  0  0  0  0  0
  187.2150  172.0910  173.5180 C   0  0  1  0  0  0  0  0  0  0  0  0
  187.2290  170.6070  173.9210 C   0  0  0  0  0  0  0  0  0  0  0  0
  186.3340  169.6910  173.0010 C   0  0  2  0  0  0  0  0  0  0  0  0
  187.3200  168.6750  172.3520 C   0  0  0  0  0  0  0  0  0  0  0  0
  186.9940  175.7310  172.4230 C   0  0  0  0  0  0  0  0  0  0  0  0
  186.0960  175.5830  171.3540 C   0  0  0  0  0  0  0  0  0  0  0  0
  186.2490  176.3310  170.1850 C   0  0  0  0  0  0  0  0  0  0  0  0
  187.2950  177.2440  170.0720 C   0  0  0  0  0  0  0  0  0  0  0  0
  188.1840  177.4150  171.1310 C   0  0  0  0  0  0  0  0  0  0  0  0
  188.0320  176.6680  172.3000 C   0  0  0  0  0  0  0  0  0  0  0  0
  185.2430  168.9730  173.8370 C   0  0  0  0  0  0  0  0  0  0  0  0
  184.5060  169.6330  174.8380 C   0  0  0  0  0  0  0  0  0  0  0  0
  183.5370  168.9640  175.5980 C   0  0  0  0  0  0  0  0  0  0  0  0
  183.2850  167.6150  175.3780 C   0  0  0  0  0  0  0  0  0  0  0  0
  184.0020  166.9450  174.4020 C   0  0  0  0  0  0  0  0  0  0  0  0
  184.9680  167.6040  173.6410 C   0  0  0  0  0  0  0  0  0  0  0  0
  183.7350  165.6200  174.2110 O   0  0  0  0  0  0  0  0  0  0  0  0
  2  1  1  1
  2  3  1  0
  2 11  1  0
  4  3  1  0
  4  9  1  0
  4  5  1  0
  5  6  1  0
  6 13  1  6
  6  7  1  0
  7  8  1  0
  9 10  1  1
  9  8  1  0
 11 12  1  6
 11 19  1  0
 11 10  1  0
 14 13  2  0
 15 14  1  0
 16 15  2  0
 16 17  1  0
 17 18  2  0
 18 13  1  0
 19 20  2  0
 20 21  1  0
 22 21  2  0
 23 22  1  0
 24 19  1  0
 24 23  2  0
 25 23  1  0
M  END
$$$$
