lig_014
     RDKit          3D

 27 30  0  0  1  0  0  0  0  0999 V2000
    0.8830  -18.3400   12.6550 N   0  0  0  0  0  0  0  0  0  0  0  0
    2.0720  -17.4960   12.3740 C   0  0  0  0  0  0  0  0  0  0  0  0
    1.9620  -16.0240   12.8420 C   0  0  0  0  0  0  0  0  0  0  0  0
    0.7350  -15.3650   12.3420 N   0  0  0  0  0  0  0  0  0  0  0  0
    0.8090  -14.7360   11.1190 C   0  0  0  0  0  0  0  0  0  0  0  0
    1.7180  -15.0350   10.1930 N   0  0  0  0  0  0  0  0  0  0  0  0
    1.4760  -14.1090    8.8530 S   0  0  0  0  0  0  0  0  0  0  0  0
    0.1640  -13.1990    9.4750 C   0  0  0  0  0  0  0  0  0  0  0  0
   -0.5710  -12.1660    8.8690 C   0  0  0  0  0  0  0  0  0  0  0  0
   -1.5900  -11.5560    9.6030 C   0  0  0  0  0  0  0  0  0  0  0  0
   -1.8650  -11.9590   10.9040 C   0  0  0  0  0  0  0  0  0  0  0  0
   -1.1290  -12.9920   11.4940 C   0  0  0  0  0  0  0  0  0  0  0  0
   -0.0970  -13.6480   10.7720 C   0  0  0  0  0  0  0  0  0  0  0  0
   -0.4760  -16.1730   12.6070 C   0  0  0  0  0  0  0  0  0  0  0  0
   -0.3060  -17.6330   12.1200 C   0  0  0  0  0  0  0  0  0  0  0  0
    0.7180  -18.6630   14.0810 C   0  0  0  0  0  0  0  0  0  0  0  0
    1.4120  -19.9810   14.4640 C   0  0  0  0  0  0  0  0  0  0  0  0
   -0.2930  -23.6560   15.6890 C   0  0  1  0  0  0  0  0  0  0  0  0
    0.5350  -23.7490   14.3990 C   0  0  0  0  0  0  0  0  0  0  0  0
    1.4270  -22.5270   14.2150 C   0  0  0  0  0  0  0  0  0  0  0  0
    0.6010  -21.2340   14.0620 C   0  0  1  0  0  0  0  0  0  0  0  0
   -0.7270  -21.3020   14.8470 C   0  0  0  0  0  0  0  0  0  0  0  0
   -0.6290  -22.2030   16.0740 C   0  0  0  0  0  0  0  0  0  0  0  0
   -3.4420  -25.6780   16.3300 C   0  0  0  0  0  0  0  0  0  0  0  0
   -2.1420  -24.9920   16.6530 C   0  0  0  0  0  0  0  0  0  0  0  0
   -1.7130  -24.9160   17.7990 O   0  0  0  0  0  0  0  0  0  0  0  0
   -1.5040  -24.4580   15.5540 N   0  0  0  0  0  0  0  0  0  0  0  0
  1 16  1  0
  2  1  1  0
  2  3  1  0
  4 14  1  0
  4  3  1  0
  5  4  1  0
  6  5  2  0
  7  8  1  0
  7  6  1  0
  8 13  1  0
  9  8  2  0
  9 10  1  0
 10 11  2  0
 11 12  1  0
 13  5  1  0
 13 12  2  0
 15 14  1  0
 15  1  1  0
 16 17  1  0
 18 27  1  6
 18 23  1  0
 19 18  1  0
 20 19  1  0
 21 20  1  0
 21 17  1  1
 21 22  1  0
 22 23  1  0
 24 25  1  0
 25 26  2  0
 27 25  1  0
M  END
$$$$
