lig_001
     RDKit          3D

 30 35  0  0  1  0  0  0  0  0999 V2000
    6.7770  -28.5230   64.4000 C   0  0  0  0  0  0  0  0  0  0  0  0
    7.5440  -27.7920   65.3050 C   0  0  0  0  0  0  0  0  0  0  0  0
    6.9820  -27.3020   66.4850 C   0  0  0  0  0  0  0  0  0  0  0  0
    5.6320  -27.5310   66.7870 C   0  0  0  0  0  0  0  0  0  0  0  0
    4.8350  -28.2880   65.9030 C   0  0  0  0  0  0  0  0  0  0  0  0
    5.4250  -28.7480   64.7080 C   0  0  0  0  0  0  0  0  0  0  0  0
    3.3450  -28.5220   66.2140 C   0  0  1  0  0  0  0  0  0  0  0  0
    2.7950  -29.8780   65.6900 C   0  0  0  0  0  0  0  0  0  0  0  0
    3.3960  -31.0850   66.4130 C   0  0  0  0  0  0  0  0  0  0  0  0
    3.1870  -30.9980   67.9210 C   0  0  0  0  0  0  0  0  0  0  0  0
    3.6990  -29.6770   68.4890 C   0  0  0  0  0  0  0  0  0  0  0  0
    3.0840  -28.4750   67.7430 C   0  0  1  0  0  0  0  0  0  0  0  0
    3.5570  -27.1120   68.2770 C   0  0  1  0  0  0  0  0  0  0  0  0
    5.0840  -26.9530   68.0740 C   0  0  0  0  0  0  0  0  0  0  0  0
    2.8090  -25.9760   67.6700 N   0  0  0  0  0  0  0  0  0  0  0  0
    2.8600  -25.9960   66.1980 C   0  0  0  0  0  0  0  0  0  0  0  0
    2.5400  -27.3610   65.5690 C   0  0  0  0  0  0  0  0  0  0  0  0
    7.2810  -28.9930   63.1730 N   0  0  0  0  0  0  0  0  0  0  0  0
    7.4390  -27.1110   59.3830 C   0  0  0  0  0  0  0  0  0  0  0  0
    7.3040  -26.3630   60.5510 C   0  0  0  0  0  0  0  0  0  0  0  0
    7.2650  -27.0050   61.7970 C   0  0  0  0  0  0  0  0  0  0  0  0
    7.3640  -28.3990   61.9030 C   0  0  0  0  0  0  0  0  0  0  0  0
    7.4910  -29.1360   60.7230 C   0  0  0  0  0  0  0  0  0  0  0  0
    7.5330  -28.4990   59.4790 C   0  0  0  0  0  0  0  0  0  0  0  0
    6.2710  -26.5920   57.3800 C   0  0  0  0  0  0  0  0  0  0  0  0
    7.4910  -26.6170   58.1110 O   0  0  0  0  0  0  0  0  0  0  0  0
    1.4240  -25.8450   68.1430 C   0  0  0  0  0  0  0  0  0  0  0  0
    0.5660  -25.1380   67.1350 C   0  0  0  0  0  0  0  0  0  0  0  0
   -0.9220  -25.0320   67.3680 C   0  0  0  0  0  0  0  0  0  0  0  0
   -0.0650  -23.8010   67.4410 C   0  0  0  0  0  0  0  0  0  0  0  0
  1  6  2  0
  1  2  1  0
  2  3  2  0
  3  4  1  0
  4 14  1  0
  5  7  1  0
  5  4  2  0
  6  5  1  0
  7 17  1  6
  7 12  1  0
  8  7  1  0
  8  9  1  0
  9 10  1  0
 10 11  1  0
 12 13  1  0
 12 11  1  1
 13 14  1  6
 15 27  1  0
 15 13  1  0
 16 15  1  0
 17 16  1  0
 18  1  1  0
 19 24  2  0
 19 20  1  0
 20 21  2  0
 21 22  1  0
 22 18  1  0
 23 22  2  0
 24 23  1  0
 25 26  1  0
 26 19  1  0
 28 29  1  0
 28 30  1  0
 28 27  1  0
 29 30  1  0
M  END
$$$$
