lig_301
     RDKit          3D

 34 38  0  0  1  0  0  0  0  0999 V2000
    0.7350  -19.1500   12.3670 N   0  0  0  0  0  0  0  0  0  0  0  0
    0.9100  -19.3420   13.8060 C   0  0  0  0  0  0  0  0  0  0  0  0
    0.9120  -17.9220   14.3710 C   0  0  1  0  0  0  0  0  0  0  0  0
    2.2910  -17.2500   14.3720 C   0  0  0  0  0  0  0  0  0  0  0  0
    2.3260  -16.3960   13.1120 C   0  0  0  0  0  0  0  0  0  0  0  0
    0.9340  -15.9910   12.9730 N   0  0  0  0  0  0  0  0  0  0  0  0
    0.0550  -17.0930   13.3880 C   0  0  1  0  0  0  0  0  0  0  0  0
   -0.2850  -18.0920   12.2610 C   0  0  0  0  0  0  0  0  0  0  0  0
    0.6050  -15.1220   11.9540 C   0  0  0  0  0  0  0  0  0  0  0  0
   -0.4350  -14.1930   12.0630 C   0  0  0  0  0  0  0  0  0  0  0  0
   -0.7950  -13.3130   11.0900 N   0  0  0  0  0  0  0  0  0  0  0  0
   -0.0540  -13.3640    9.9490 C   0  0  0  0  0  0  0  0  0  0  0  0
    0.9960  -14.2620    9.8370 C   0  0  0  0  0  0  0  0  0  0  0  0
    1.3360  -15.1370   10.8160 N   0  0  0  0  0  0  0  0  0  0  0  0
   -0.3270  -12.4290    8.7950 C   0  0  0  0  0  0  0  0  0  0  0  0
   -1.5750  -11.8790    8.8510 F   0  0  0  0  0  0  0  0  0  0  0  0
    0.5340  -11.3680    8.7650 F   0  0  0  0  0  0  0  0  0  0  0  0
   -0.2310  -13.0100    7.5650 F   0  0  0  0  0  0  0  0  0  0  0  0
    0.3450  -20.3640   11.6440 C   0  0  0  0  0  0  0  0  0  0  0  0
   -0.5780  -21.2590   12.4830 C   0  0  0  0  0  0  0  0  0  0  0  0
   -0.0830  -22.7030   12.6040 C   0  0  0  0  0  0  0  0  0  0  0  0
    0.8920  -23.0480   14.1050 S   0  0  0  0  0  0  0  0  0  0  0  0
   -1.1700  -21.6830   16.1470 C   0  0  0  0  0  0  0  0  0  0  0  0
   -1.1280  -23.1090   15.9480 N   0  0  0  0  0  0  0  0  0  0  0  0
   -0.2860  -23.8020   15.1210 C   0  0  0  0  0  0  0  0  0  0  0  0
   -0.5270  -25.0870   15.2210 N   0  0  0  0  0  0  0  0  0  0  0  0
   -1.5510  -25.2510   16.1190 N   0  0  0  0  0  0  0  0  0  0  0  0
   -1.9300  -24.0590   16.5400 C   0  0  0  0  0  0  0  0  0  0  0  0
   -3.0370  -23.7820   17.5090 C   0  0  0  0  0  0  0  0  0  0  0  0
   -4.3650  -23.5290   16.7900 C   0  0  0  0  0  0  0  0  0  0  0  0
   -5.4710  -23.2210   17.7980 C   0  0  0  0  0  0  0  0  0  0  0  0
   -5.2130  -23.7670   19.0940 O   0  0  0  0  0  0  0  0  0  0  0  0
   -4.6200  -25.0580   19.0280 C   0  0  0  0  0  0  0  0  0  0  0  0
   -3.1910  -24.9420   18.5060 C   0  0  0  0  0  0  0  0  0  0  0  0
  1  2  1  0
  3  2  1  6
  3  4  1  0
  5  4  1  0
  6  5  1  0
  6  7  1  0
  7  8  1  6
  7  3  1  0
  8  1  1  0
  9 10  1  0
  9  6  1  0
 11 10  2  0
 12 11  1  0
 13 12  2  0
 13 14  1  0
 14  9  2  0
 15 16  1  0
 15 12  1  0
 17 15  1  0
 18 15  1  0
 19  1  1  0
 19 20  1  0
 20 21  1  0
 21 22  1  0
 22 25  1  0
 24 23  1  0
 24 28  1  0
 25 26  2  0
 25 24  1  0
 26 27  1  0
 27 28  2  0
 28 29  1  0
 29 34  1  0
 30 29  1  0
 30 31  1  0
 31 32  1  0
 33 32  1  0
 34 33  1  0
M  END
$$$$
