lig_146
     RDKit          3D

 19 21  0  0  0  0  0  0  0  0999 V2000
   22.9730   16.1270    6.7510 C   0  0  0  0  0  0  0  0  0  0  0  0
   22.8960   17.1720    5.8230 C   0  0  0  0  0  0  0  0  0  0  0  0
   22.2750   18.3840    6.1660 C   0  0  0  0  0  0  0  0  0  0  0  0
   21.7010   18.5820    7.4370 C   0  0  0  0  0  0  0  0  0  0  0  0
   21.8030   17.5410    8.3610 C   0  0  0  0  0  0  0  0  0  0  0  0
   22.4190   16.3280    8.0090 C   0  0  0  0  0  0  0  0  0  0  0  0
   22.3290   15.3820    9.1620 C   0  0  0  0  0  0  0  0  0  0  0  0
   21.9760   16.3540   10.2930 C   0  0  0  0  0  0  0  0  0  0  0  0
   21.2960   17.5140    9.6860 N   0  0  0  0  0  0  0  0  0  0  0  0
   21.3540   18.7850   10.4130 C   0  0  0  0  0  0  0  0  0  0  0  0
   20.1990   19.7280   10.0180 C   0  0  0  0  0  0  0  0  0  0  0  0
   19.8420   19.7850    8.5920 N   0  0  0  0  0  0  0  0  0  0  0  0
   21.0260   19.9010    7.7370 C   0  0  0  0  0  0  0  0  0  0  0  0
   23.2480   14.1940    5.4170 O   0  0  0  0  0  0  0  0  0  0  0  0
   23.6110   14.8290    6.3990 C   0  0  0  0  0  0  0  0  0  0  0  0
   24.5950   14.3900    7.2660 N   0  0  0  0  0  0  0  0  0  0  0  0
   25.1600   13.0560    7.1220 C   0  0  0  0  0  0  0  0  0  0  0  0
   24.7780   12.1490    8.2850 C   0  0  0  0  0  0  0  0  0  0  0  0
   25.5070   12.7200    9.8020 Cl  0  0  0  0  0  0  0  0  0  0  0  0
  1  6  2  0
  2  3  2  0
  2  1  1  0
  3  4  1  0
  4 13  1  0
  4  5  2  0
  5  9  1  0
  6  5  1  0
  6  7  1  0
  7  8  1  0
  9  8  1  0
  9 10  1  0
 11 10  1  0
 12 11  1  0
 13 12  1  0
 14 15  2  0
 15  1  1  0
 15 16  1  0
 17 16  1  0
 17 18  1  0
 18 19  1  0
M  END
$$$$
