lig_030
     RDKit          3D

 32 36  0  0  0  0  0  0  0  0999 V2000
  123.1940  139.8480  110.5490 N   0  0  0  0  0  0  0  0  0  0  0  0
  123.0680  141.3060  110.6220 C   0  0  0  0  0  0  0  0  0  0  0  0
  123.9090  141.9650  109.5240 C   0  0  0  0  0  0  0  0  0  0  0  0
  123.9440  141.1480  108.2240 C   0  0  0  0  0  0  0  0  0  0  0  0
  122.6900  140.2830  108.1240 C   0  0  0  0  0  0  0  0  0  0  0  0
  122.5910  139.3220  109.3110 C   0  0  0  0  0  0  0  0  0  0  0  0
  122.6320  139.2090  111.7530 C   0  0  0  0  0  0  0  0  0  0  0  0
  123.6880  138.7250  112.7600 C   0  0  0  0  0  0  0  0  0  0  0  0
  124.9680  138.7580  112.1080 O   0  0  0  0  0  0  0  0  0  0  0  0
  126.3010  136.5700  108.4950 C   0  0  0  0  0  0  0  0  0  0  0  0
  125.8420  137.5450  109.3520 C   0  0  0  0  0  0  0  0  0  0  0  0
  125.8010  136.9880  110.6630 C   0  0  0  0  0  0  0  0  0  0  0  0
  125.4340  137.4730  111.9340 C   0  0  0  0  0  0  0  0  0  0  0  0
  125.4690  136.6200  113.0430 C   0  0  0  0  0  0  0  0  0  0  0  0
  125.9060  135.3050  112.9040 C   0  0  0  0  0  0  0  0  0  0  0  0
  126.3040  134.8020  111.6600 C   0  0  0  0  0  0  0  0  0  0  0  0
  126.2340  135.6630  110.5570 C   0  0  0  0  0  0  0  0  0  0  0  0
  126.5360  135.4400  109.2330 N   0  0  0  0  0  0  0  0  0  0  0  0
  126.7110  136.7440  105.9540 N   0  0  0  0  0  0  0  0  0  0  0  0
  126.5130  136.6580  107.0920 C   0  0  0  0  0  0  0  0  0  0  0  0
  123.9550  142.0170  107.0840 O   0  0  0  0  0  0  0  0  0  0  0  0
  124.6990  141.6780  105.9880 C   0  0  0  0  0  0  0  0  0  0  0  0
  125.6640  140.6970  106.2330 C   0  0  0  0  0  0  0  0  0  0  0  0
  126.4980  140.2430  105.2090 C   0  0  0  0  0  0  0  0  0  0  0  0
  126.3780  140.7770  103.9290 C   0  0  0  0  0  0  0  0  0  0  0  0
  125.4150  141.7550  103.6800 C   0  0  0  0  0  0  0  0  0  0  0  0
  124.5730  142.2060  104.7030 C   0  0  0  0  0  0  0  0  0  0  0  0
  125.2650  142.2770  102.3950 N   0  0  0  0  0  0  0  0  0  0  0  0
  126.0900  141.9100  101.3690 C   0  0  0  0  0  0  0  0  0  0  0  0
  125.9350  142.3560  100.2350 O   0  0  0  0  0  0  0  0  0  0  0  0
  127.2320  140.9700  101.7490 C   0  0  0  0  0  0  0  0  0  0  0  0
  127.2100  140.2610  102.9780 O   0  0  0  0  0  0  0  0  0  0  0  0
  1  2  1  0
  1  7  1  0
  3  2  1  0
  4  3  1  0
  5  4  1  0
  5  6  1  0
  6  1  1  0
  7  8  1  0
  9  8  1  0
 10 18  1  0
 10 11  2  0
 11 12  1  0
 12 13  2  0
 13  9  1  0
 13 14  1  0
 15 14  2  0
 16 15  1  0
 17 12  1  0
 17 16  2  0
 18 17  1  0
 19 20  3  0
 20 10  1  0
 21  4  1  0
 22 23  1  0
 22 21  1  0
 24 23  2  0
 25 24  1  0
 26 25  2  0
 26 27  1  0
 27 22  2  0
 28 26  1  0
 29 31  1  0
 29 28  1  0
 30 29  2  0
 31 32  1  0
 32 25  1  0
M  END
$$$$
