lig_003
     RDKit          3D

 29 33  0  0  0  0  0  0  0  0999 V2000
   10.6190    0.2200   58.1660 C   0  0  0  0  0  0  0  0  0  0  0  0
   11.0320    0.5430   59.5470 N   0  0  0  0  0  0  0  0  0  0  0  0
    9.8810    1.1080   60.2950 C   0  0  0  0  0  0  0  0  0  0  0  0
   10.2270    1.4360   61.7650 C   0  0  0  0  0  0  0  0  0  0  0  0
   10.7310    0.2440   62.4810 N   0  0  0  0  0  0  0  0  0  0  0  0
    9.7940   -0.6010   63.0310 C   0  0  0  0  0  0  0  0  0  0  0  0
    9.5860   -1.8480   62.6080 N   0  0  0  0  0  0  0  0  0  0  0  0
    8.3700   -2.5360   63.4770 S   0  0  0  0  0  0  0  0  0  0  0  0
    8.0910   -1.2050   64.5180 C   0  0  0  0  0  0  0  0  0  0  0  0
    7.1680   -1.0740   65.5710 C   0  0  0  0  0  0  0  0  0  0  0  0
    7.1520    0.1190   66.2960 C   0  0  0  0  0  0  0  0  0  0  0  0
    8.0340    1.1480   65.9870 C   0  0  0  0  0  0  0  0  0  0  0  0
    8.9450    1.0060   64.9360 C   0  0  0  0  0  0  0  0  0  0  0  0
    8.9760   -0.1850   64.1640 C   0  0  0  0  0  0  0  0  0  0  0  0
   11.8630   -0.3700   61.7530 C   0  0  0  0  0  0  0  0  0  0  0  0
   11.5250   -0.6560   60.2700 C   0  0  0  0  0  0  0  0  0  0  0  0
   11.4940    0.8880   57.0920 C   0  0  0  0  0  0  0  0  0  0  0  0
   17.0250   -1.4490   58.7020 C   0  0  0  0  0  0  0  0  0  0  0  0
   16.4170   -0.1330   58.1690 C   0  0  0  0  0  0  0  0  0  0  0  0
   17.4520    0.5440   57.2440 C   0  0  0  0  0  0  0  0  0  0  0  0
   16.1390    0.7640   59.3950 C   0  0  0  0  0  0  0  0  0  0  0  0
   15.2380    1.9270   59.0280 C   0  0  0  0  0  0  0  0  0  0  0  0
   13.9550    1.4190   58.5810 N   0  0  0  0  0  0  0  0  0  0  0  0
   13.9750    0.4240   57.5860 C   0  0  0  0  0  0  0  0  0  0  0  0
   12.7870    0.1220   56.8770 C   0  0  0  0  0  0  0  0  0  0  0  0
   12.7870   -0.8960   55.9070 C   0  0  0  0  0  0  0  0  0  0  0  0
   13.9340   -1.6370   55.6600 C   0  0  0  0  0  0  0  0  0  0  0  0
   15.0910   -1.3810   56.3880 C   0  0  0  0  0  0  0  0  0  0  0  0
   15.1270   -0.3760   57.3750 C   0  0  0  0  0  0  0  0  0  0  0  0
  1  2  1  0
  2 16  1  0
  2  3  1  0
  3  4  1  0
  4  5  1  0
  5  6  1  0
  6 14  1  0
  7  6  2  0
  7  8  1  0
  8  9  1  0
  9 10  2  0
 10 11  1  0
 12 11  2  0
 13 12  1  0
 14  9  1  0
 14 13  2  0
 15  5  1  0
 16 15  1  0
 17  1  1  0
 19 18  1  0
 19 21  1  0
 20 19  1  0
 22 21  1  0
 23 22  1  0
 24 23  1  0
 25 17  1  0
 25 24  2  0
 26 25  1  0
 27 26  2  0
 27 28  1  0
 28 29  2  0
 29 24  1  0
 29 19  1  0
M  END
$$$$
