lig_015
     RDKit          3D

 26 30  0  0  1  0  0  0  0  0999 V2000
    4.9860  -27.8770   65.5070 C   0  0  1  0  0  0  0  0  0  0  0  0
    4.6440  -27.4600   64.0630 C   0  0  0  0  0  0  0  0  0  0  0  0
    5.9160  -27.2880   63.1980 C   0  0  1  0  0  0  0  0  0  0  0  0
    5.6440  -26.9120   61.7260 C   0  0  1  0  0  0  0  0  0  0  0  0
    4.9110  -25.5470   61.6680 C   0  0  0  0  0  0  0  0  0  0  0  0
    5.3620  -24.5140   62.6740 C   0  0  0  0  0  0  0  0  0  0  0  0
    4.8140  -23.2230   62.5830 C   0  0  0  0  0  0  0  0  0  0  0  0
    5.1380  -22.2450   63.5180 C   0  0  0  0  0  0  0  0  0  0  0  0
    6.0050  -22.5550   64.5510 C   0  0  0  0  0  0  0  0  0  0  0  0
    6.5680  -23.8260   64.6590 C   0  0  0  0  0  0  0  0  0  0  0  0
    6.2470  -24.8310   63.7270 C   0  0  0  0  0  0  0  0  0  0  0  0
    6.8930  -26.2280   63.7820 C   0  0  2  0  0  0  0  0  0  0  0  0
    8.1730  -26.1370   62.8990 C   0  0  0  0  0  0  0  0  0  0  0  0
    8.1400  -27.0620   61.6860 C   0  0  0  0  0  0  0  0  0  0  0  0
    6.8880  -27.0460   60.9380 N   0  0  0  0  0  0  0  0  0  0  0  0
    7.2690  -26.7040   65.1990 C   0  0  0  0  0  0  0  0  0  0  0  0
    6.0270  -26.8850   66.0450 C   0  0  0  0  0  0  0  0  0  0  0  0
    5.9200  -26.2990   67.1220 O   0  0  0  0  0  0  0  0  0  0  0  0
    3.9340  -29.0860   67.4820 C   0  0  0  0  0  0  0  0  0  0  0  0
    3.7450  -27.9780   66.4350 C   0  0  0  0  0  0  0  0  0  0  0  0
    2.4400  -28.2520   65.6780 C   0  0  0  0  0  0  0  0  0  0  0  0
    6.2900  -21.5760   65.4580 O   0  0  0  0  0  0  0  0  0  0  0  0
    6.9720  -26.3860   59.6410 C   0  0  0  0  0  0  0  0  0  0  0  0
    6.2270  -27.1720   58.5960 C   0  0  0  0  0  0  0  0  0  0  0  0
    4.8570  -26.7320   58.1410 C   0  0  0  0  0  0  0  0  0  0  0  0
    6.0300  -26.6080   57.2100 C   0  0  0  0  0  0  0  0  0  0  0  0
  1 17  1  0
  1 20  1  1
  2  1  1  0
  3 12  1  0
  3  2  1  1
  4  5  1  1
  4  3  1  0
  5  6  1  0
  6 11  2  0
  7  6  1  0
  7  8  2  0
  8  9  1  0
  9 10  2  0
  9 22  1  0
 11 12  1  0
 11 10  1  0
 12 13  1  6
 12 16  1  0
 14 13  1  0
 15 14  1  0
 15  4  1  0
 16 17  1  0
 17 18  2  0
 20 19  1  0
 21 20  1  0
 23 15  1  0
 24 23  1  0
 25 24  1  0
 26 25  1  0
 26 24  1  0
M  END
$$$$
