lig_002
     RDKit          3D

 28 33  0  0  1  0  0  0  0  0999 V2000
  185.3640  173.1220  173.0160 C   0  0  0  0  0  0  0  0  0  0  0  0
  185.6590  173.0040  174.3730 C   0  0  0  0  0  0  0  0  0  0  0  0
  185.8010  171.7490  174.9680 C   0  0  0  0  0  0  0  0  0  0  0  0
  185.6480  170.5760  174.2160 C   0  0  0  0  0  0  0  0  0  0  0  0
  185.3890  170.6620  172.8360 C   0  0  0  0  0  0  0  0  0  0  0  0
  185.2190  171.9430  172.2690 C   0  0  0  0  0  0  0  0  0  0  0  0
  185.1980  169.3870  171.9860 C   0  0  1  0  0  0  0  0  0  0  0  0
  185.8160  169.5750  170.5640 C   0  0  0  0  0  0  0  0  0  0  0  0
  186.5860  168.3550  170.0590 C   0  0  0  0  0  0  0  0  0  0  0  0
  187.7120  167.9630  171.0180 C   0  0  0  0  0  0  0  0  0  0  0  0
  187.3260  168.0820  172.4980 C   0  0  0  0  0  0  0  0  0  0  0  0
  185.8020  168.1260  172.6600 C   0  0  1  0  0  0  0  0  0  0  0  0
  185.2900  168.0340  174.1050 C   0  0  1  0  0  0  0  0  0  0  0  0
  185.7810  169.2480  174.9210 C   0  0  0  0  0  0  0  0  0  0  0  0
  183.8210  167.7960  174.0510 N   0  0  0  0  0  0  0  0  0  0  0  0
  183.0750  168.8160  173.2950 C   0  0  0  0  0  0  0  0  0  0  0  0
  183.6750  169.1170  171.9100 C   0  0  0  0  0  0  0  0  0  0  0  0
  185.1530  174.3580  172.3810 N   0  0  0  0  0  0  0  0  0  0  0  0
  187.8050  177.2230  170.7720 C   0  0  0  0  0  0  0  0  0  0  0  0
  188.1080  176.6150  171.9860 C   0  0  0  0  0  0  0  0  0  0  0  0
  187.2330  175.6710  172.5350 C   0  0  0  0  0  0  0  0  0  0  0  0
  186.0430  175.3270  171.8850 C   0  0  0  0  0  0  0  0  0  0  0  0
  185.7580  175.9470  170.6600 C   0  0  0  0  0  0  0  0  0  0  0  0
  186.6300  176.8890  170.1070 C   0  0  0  0  0  0  0  0  0  0  0  0
  183.1810  167.5640  175.3520 C   0  0  0  0  0  0  0  0  0  0  0  0
  181.9850  168.4500  175.5520 C   0  0  0  0  0  0  0  0  0  0  0  0
  180.8740  168.0400  176.4890 C   0  0  0  0  0  0  0  0  0  0  0  0
  181.7790  169.1830  176.8550 C   0  0  0  0  0  0  0  0  0  0  0  0
  1  2  1  0
  2  3  2  0
  4 14  1  0
  4  3  1  0
  5  4  2  0
  6  5  1  0
  6  1  2  0
  7  8  1  6
  7 12  1  0
  7  5  1  0
  9  8  1  0
  9 10  1  0
 10 11  1  0
 12 11  1  1
 12 13  1  0
 13 14  1  1
 15 13  1  0
 15 25  1  0
 16 15  1  0
 17  7  1  0
 17 16  1  0
 18  1  1  0
 19 20  2  0
 20 21  1  0
 22 18  1  0
 22 21  2  0
 23 22  1  0
 24 23  2  0
 24 19  1  0
 25 26  1  0
 26 27  1  0
 26 28  1  0
 27 28  1  0
M  END
$$$$
