lig_007
     RDKit          3D

 33 36  0  0  1  0  0  0  0  0999 V2000
   11.1740    0.0110   62.9560 C   0  0  1  0  0  0  0  0  0  0  0  0
   11.6990   -0.6240   61.6640 C   0  0  0  0  0  0  0  0  0  0  0  0
   10.7500   -0.4380   60.4750 C   0  0  0  0  0  0  0  0  0  0  0  0
    9.9500    0.8770   60.5100 C   0  0  1  0  0  0  0  0  0  0  0  0
   10.6910    1.9450   61.3200 C   0  0  0  0  0  0  0  0  0  0  0  0
   10.9250    1.5160   62.7730 C   0  0  0  0  0  0  0  0  0  0  0  0
    8.4270   -1.3360   65.0560 N   0  0  0  0  0  0  0  0  0  0  0  0
    9.5760   -0.6110   64.7320 C   0  0  0  0  0  0  0  0  0  0  0  0
   10.2110    0.0420   65.5580 O   0  0  0  0  0  0  0  0  0  0  0  0
    9.9600   -0.6570   63.4210 N   0  0  0  0  0  0  0  0  0  0  0  0
    7.7920    0.0670   67.0490 C   0  0  0  0  0  0  0  0  0  0  0  0
    8.0550   -1.3360   66.4920 C   0  0  0  0  0  0  0  0  0  0  0  0
    9.0850   -2.0920   67.3340 C   0  0  0  0  0  0  0  0  0  0  0  0
    7.4440   -1.9010   64.0960 C   0  0  0  0  0  0  0  0  0  0  0  0
    7.8310   -3.2760   63.5410 C   0  0  0  0  0  0  0  0  0  0  0  0
    6.0070   -1.8680   64.6200 C   0  0  0  0  0  0  0  0  0  0  0  0
    9.6240    1.3950   59.0940 C   0  0  0  0  0  0  0  0  0  0  0  0
   10.8830    1.7630   58.2910 C   0  0  0  0  0  0  0  0  0  0  0  0
   11.9530    0.7750   58.4800 N   0  0  0  0  0  0  0  0  0  0  0  0
   13.2140    1.4440   58.8670 C   0  0  0  0  0  0  0  0  0  0  0  0
   14.4560    0.5320   58.7430 C   0  0  0  0  0  0  0  0  0  0  0  0
   14.6470    0.0510   57.3610 N   0  0  0  0  0  0  0  0  0  0  0  0
   15.8800    0.1900   56.7710 C   0  0  0  0  0  0  0  0  0  0  0  0
   16.0430    0.7510   55.5720 N   0  0  0  0  0  0  0  0  0  0  0  0
   17.6410    0.7980   55.1850 S   0  0  0  0  0  0  0  0  0  0  0  0
   18.2090   -0.0010   56.5900 C   0  0  0  0  0  0  0  0  0  0  0  0
   19.5250   -0.3400   56.9470 C   0  0  0  0  0  0  0  0  0  0  0  0
   19.7340   -1.0240   58.1470 C   0  0  0  0  0  0  0  0  0  0  0  0
   18.6630   -1.3670   58.9600 C   0  0  0  0  0  0  0  0  0  0  0  0
   17.3560   -1.0200   58.5930 C   0  0  0  0  0  0  0  0  0  0  0  0
   17.1060   -0.3050   57.3930 C   0  0  0  0  0  0  0  0  0  0  0  0
   13.4580    0.1760   56.4960 C   0  0  0  0  0  0  0  0  0  0  0  0
   12.1610   -0.0910   57.2940 C   0  0  0  0  0  0  0  0  0  0  0  0
  1 10  1  6
  2  1  1  0
  3  4  1  0
  3  2  1  0
  4 17  1  6
  4  5  1  0
  5  6  1  0
  6  1  1  0
  7 12  1  0
  8  7  1  0
  8  9  2  0
 10  8  1  0
 12 11  1  0
 12 13  1  0
 14 16  1  0
 14  7  1  0
 15 14  1  0
 18 19  1  0
 18 17  1  0
 19 20  1  0
 21 20  1  0
 22 21  1  0
 23 22  1  0
 23 31  1  0
 24 23  2  0
 25 24  1  0
 25 26  1  0
 26 27  2  0
 26 31  1  0
 27 28  1  0
 28 29  2  0
 30 29  1  0
 31 30  2  0
 32 33  1  0
 32 22  1  0
 33 19  1  0
M  END
$$$$
