lig_026
     RDKit          3D

 31 35  0  0  1  0  0  0  0  0999 V2000
  123.4520  141.7400  109.9290 C   0  0  0  0  0  0  0  0  0  0  0  0
  123.8140  140.3340  114.1130 C   0  0  1  0  0  0  0  0  0  0  0  0
  124.4460  141.6740  113.7160 C   0  0  0  0  0  0  0  0  0  0  0  0
  123.8510  142.2160  112.4160 C   0  0  0  0  0  0  0  0  0  0  0  0
  123.9730  141.1950  111.2750 C   0  0  1  0  0  0  0  0  0  0  0  0
  123.3170  139.8640  111.6740 C   0  0  0  0  0  0  0  0  0  0  0  0
  123.9140  139.3170  112.9700 C   0  0  0  0  0  0  0  0  0  0  0  0
  122.9820  140.7710  116.7890 O   0  0  0  0  0  0  0  0  0  0  0  0
  124.0050  140.1230  116.5810 C   0  0  0  0  0  0  0  0  0  0  0  0
  124.4400  139.8040  115.3110 N   0  0  0  0  0  0  0  0  0  0  0  0
  124.8680  139.6310  117.6360 C   0  0  0  0  0  0  0  0  0  0  0  0
  125.4650  138.3980  117.8210 C   0  0  0  0  0  0  0  0  0  0  0  0
  126.2000  138.4770  119.0280 C   0  0  0  0  0  0  0  0  0  0  0  0
  126.0070  139.7500  119.5100 C   0  0  0  0  0  0  0  0  0  0  0  0
  125.2010  140.4600  118.6780 O   0  0  0  0  0  0  0  0  0  0  0  0
  123.1240  140.6790  108.8650 C   0  0  0  0  0  0  0  0  0  0  0  0
  124.3190  140.2470  108.1150 N   0  0  0  0  0  0  0  0  0  0  0  0
  124.0660  138.9180  107.4960 C   0  0  0  0  0  0  0  0  0  0  0  0
  125.2510  138.4160  106.6400 C   0  0  0  0  0  0  0  0  0  0  0  0
  125.6450  139.3950  105.6030 N   0  0  0  0  0  0  0  0  0  0  0  0
  124.9760  139.3580  104.4020 C   0  0  0  0  0  0  0  0  0  0  0  0
  123.7610  138.8320  104.2500 N   0  0  0  0  0  0  0  0  0  0  0  0
  123.2700  139.0000  102.6880 S   0  0  0  0  0  0  0  0  0  0  0  0
  124.7020  139.7420  102.1090 C   0  0  0  0  0  0  0  0  0  0  0  0
  125.0200  140.1710  100.8090 C   0  0  0  0  0  0  0  0  0  0  0  0
  126.2800  140.7300  100.5830 C   0  0  0  0  0  0  0  0  0  0  0  0
  127.1960  140.8530  101.6200 C   0  0  0  0  0  0  0  0  0  0  0  0
  126.8650  140.4260  102.9100 C   0  0  0  0  0  0  0  0  0  0  0  0
  125.5880  139.8700  103.1810 C   0  0  0  0  0  0  0  0  0  0  0  0
  125.8890  140.7260  106.1990 C   0  0  0  0  0  0  0  0  0  0  0  0
  124.6820  141.2040  107.0430 C   0  0  0  0  0  0  0  0  0  0  0  0
  2 10  1  1
  3  2  1  0
  4  3  1  0
  5  1  1  6
  5  6  1  0
  5  4  1  0
  6  7  1  0
  7  2  1  0
  9  8  2  0
  9 11  1  0
 10  9  1  0
 11 12  2  0
 11 15  1  0
 12 13  1  0
 13 14  2  0
 15 14  1  0
 16  1  1  0
 17 16  1  0
 18 17  1  0
 19 18  1  0
 20 30  1  0
 20 19  1  0
 21 20  1  0
 22 21  2  0
 23 22  1  0
 24 23  1  0
 24 29  1  0
 25 24  2  0
 26 25  1  0
 26 27  2  0
 27 28  1  0
 28 29  2  0
 29 21  1  0
 30 31  1  0
 31 17  1  0
M  END
$$$$
