lig_261
     RDKit          3D

 21 22  0  0  0  0  0  0  0  0999 V2000
    0.1650  -16.3060   13.0010 C   0  0  0  0  0  0  0  0  0  0  0  0
    0.4810  -21.8780   12.8730 C   0  0  0  0  0  0  0  0  0  0  0  0
   -0.1170  -22.5750   12.0540 O   0  0  0  0  0  0  0  0  0  0  0  0
    0.5820  -20.5010   12.7330 N   0  0  0  0  0  0  0  0  0  0  0  0
    1.2930  -19.6140   13.6590 C   0  0  0  0  0  0  0  0  0  0  0  0
    1.6800  -18.2660   13.0190 C   0  0  0  0  0  0  0  0  0  0  0  0
    0.5850  -17.5510   12.3480 N   0  0  0  0  0  0  0  0  0  0  0  0
   -0.5380  -18.4200   11.9600 C   0  0  0  0  0  0  0  0  0  0  0  0
   -0.0950  -19.8510   11.6080 C   0  0  0  0  0  0  0  0  0  0  0  0
    0.5960  -23.8590   14.4380 C   0  0  0  0  0  0  0  0  0  0  0  0
    1.1510  -22.4860   14.0960 C   0  0  0  0  0  0  0  0  0  0  0  0
   -0.1140  -15.0950   12.0920 C   0  0  0  0  0  0  0  0  0  0  0  0
    0.5000  -15.2680   10.8130 O   0  0  0  0  0  0  0  0  0  0  0  0
    0.5140  -14.2190    9.9390 C   0  0  0  0  0  0  0  0  0  0  0  0
   -0.2180  -13.0380   10.0480 C   0  0  0  0  0  0  0  0  0  0  0  0
   -0.1000  -12.0350    9.0740 C   0  0  0  0  0  0  0  0  0  0  0  0
    0.7540  -12.2050    7.9850 C   0  0  0  0  0  0  0  0  0  0  0  0
    1.4890  -13.3860    7.8800 C   0  0  0  0  0  0  0  0  0  0  0  0
    1.3720  -14.3840    8.8510 C   0  0  0  0  0  0  0  0  0  0  0  0
    0.9590  -11.3100    6.9720 O   0  0  0  0  0  0  0  0  0  0  0  0
    1.6610  -11.7800    5.8290 C   0  0  0  0  0  0  0  0  0  0  0  0
  2 11  1  0
  3  2  2  0
  4  2  1  0
  4  5  1  0
  6  5  1  0
  7  1  1  0
  7  6  1  0
  8  7  1  0
  9  8  1  0
  9  4  1  0
 11 10  1  0
 12  1  1  0
 13 12  1  0
 14 15  1  0
 14 13  1  0
 16 15  2  0
 17 16  1  0
 18 17  2  0
 18 19  1  0
 19 14  2  0
 20 17  1  0
 21 20  1  0
M  END
$$$$
