lig_294
     RDKit          3D

 33 37  0  0  0  0  0  0  0  0999 V2000
   -0.8410   10.8230   15.9400 C   0  0  0  0  0  0  0  0  0  0  0  0
   -1.5430    9.5220   16.2460 C   0  0  0  0  0  0  0  0  0  0  0  0
   -0.8230    8.4280   16.7440 C   0  0  0  0  0  0  0  0  0  0  0  0
   -1.4670    7.2150   17.0040 C   0  0  0  0  0  0  0  0  0  0  0  0
   -2.8420    7.0890   16.7710 C   0  0  0  0  0  0  0  0  0  0  0  0
   -3.5600    8.1700   16.2500 C   0  0  0  0  0  0  0  0  0  0  0  0
   -2.9140    9.3820   15.9930 C   0  0  0  0  0  0  0  0  0  0  0  0
   -3.5630    5.8110   17.0330 C   0  0  0  0  0  0  0  0  0  0  0  0
   -2.9360    4.8810   17.5270 O   0  0  0  0  0  0  0  0  0  0  0  0
   -4.8800    5.7980   16.6230 N   0  0  0  0  0  0  0  0  0  0  0  0
   -5.8560    4.7780   16.7820 C   0  0  0  0  0  0  0  0  0  0  0  0
   -6.9740    5.1500   17.5540 C   0  0  0  0  0  0  0  0  0  0  0  0
   -8.0090    4.2510   17.8160 C   0  0  0  0  0  0  0  0  0  0  0  0
   -7.9290    2.9530   17.3340 C   0  0  0  0  0  0  0  0  0  0  0  0
   -6.8180    2.5620   16.5890 C   0  0  0  0  0  0  0  0  0  0  0  0
   -5.7860    3.4650   16.2680 C   0  0  0  0  0  0  0  0  0  0  0  0
   -4.6290    2.9210   15.6780 N   0  0  0  0  0  0  0  0  0  0  0  0
   -1.4480   11.9830   16.7210 C   0  0  0  0  0  0  0  0  0  0  0  0
   -1.7910   17.0290   18.2490 N   0  0  0  0  0  0  0  0  0  0  0  0
   -2.1050   16.2710   17.1390 C   0  0  0  0  0  0  0  0  0  0  0  0
   -2.6860   16.9160   16.1190 N   0  0  0  0  0  0  0  0  0  0  0  0
   -3.0240   16.2100   15.0090 C   0  0  0  0  0  0  0  0  0  0  0  0
   -2.7740   14.8440   14.9620 C   0  0  0  0  0  0  0  0  0  0  0  0
   -2.9270   13.7470   14.0890 C   0  0  0  0  0  0  0  0  0  0  0  0
   -2.4730   12.5990   14.6090 N   0  0  0  0  0  0  0  0  0  0  0  0
   -2.0350   12.9680   15.8340 N   0  0  0  0  0  0  0  0  0  0  0  0
   -2.1880   14.3030   16.0910 C   0  0  0  0  0  0  0  0  0  0  0  0
   -1.8360   14.9620   17.2060 N   0  0  0  0  0  0  0  0  0  0  0  0
   -3.6350   16.9500   13.9240 C   0  0  0  0  0  0  0  0  0  0  0  0
   -3.4060   16.9930   12.5610 C   0  0  0  0  0  0  0  0  0  0  0  0
   -4.3310   17.9160   12.0180 C   0  0  0  0  0  0  0  0  0  0  0  0
   -5.0690   18.3830   13.0790 C   0  0  0  0  0  0  0  0  0  0  0  0
   -4.6570   17.8040   14.2360 O   0  0  0  0  0  0  0  0  0  0  0  0
  1  2  1  0
  1 18  1  0
  2  3  1  0
  3  4  2  0
  5  4  1  0
  5  8  1  0
  6  5  2  0
  7  2  2  0
  7  6  1  0
  8  9  2  0
 10 11  1  0
 10  8  1  0
 11 12  2  0
 12 13  1  0
 14 13  2  0
 15 14  1  0
 16 15  2  0
 16 11  1  0
 17 16  1  0
 20 28  1  0
 20 19  1  0
 21 20  2  0
 22 21  1  0
 23 22  2  0
 23 27  1  0
 24 25  2  0
 24 23  1  0
 25 26  1  0
 26 27  1  0
 26 18  1  0
 27 28  2  0
 29 33  1  0
 29 22  1  0
 30 29  2  0
 31 30  1  0
 31 32  2  0
 32 33  1  0
M  END
$$$$
