lig_402
     RDKit          3D

 21 24  0  0  0  0  0  0  0  0999 V2000
   -1.3310  -22.8310   18.2940 C   0  0  0  0  0  0  0  0  0  0  0  0
   -2.2380  -21.8080   17.7760 N   0  0  0  0  0  0  0  0  0  0  0  0
   -1.7460  -20.4380   18.0590 C   0  0  0  0  0  0  0  0  0  0  0  0
   -0.4320  -20.0270   17.3440 C   0  0  0  0  0  0  0  0  0  0  0  0
   -0.4500  -20.5550   15.9490 C   0  0  0  0  0  0  0  0  0  0  0  0
   -1.3740  -21.4690   15.4870 C   0  0  0  0  0  0  0  0  0  0  0  0
   -1.0500  -21.7470   14.1310 C   0  0  0  0  0  0  0  0  0  0  0  0
   -1.6210  -22.5770   13.1430 C   0  0  0  0  0  0  0  0  0  0  0  0
   -1.0500  -22.6310   11.8670 C   0  0  0  0  0  0  0  0  0  0  0  0
    0.0750  -21.8710   11.5660 C   0  0  0  0  0  0  0  0  0  0  0  0
    0.6600  -21.0390   12.5260 C   0  0  0  0  0  0  0  0  0  0  0  0
    0.0830  -20.9890   13.8070 C   0  0  0  0  0  0  0  0  0  0  0  0
    0.4310  -20.2650   14.9390 N   0  0  0  0  0  0  0  0  0  0  0  0
   -2.4990  -21.9960   16.3260 C   0  0  0  0  0  0  0  0  0  0  0  0
    1.5950  -19.3900   15.0580 C   0  0  0  0  0  0  0  0  0  0  0  0
    1.4340  -18.0800   14.3200 C   0  0  0  0  0  0  0  0  0  0  0  0
    0.3160  -17.2710   14.5780 C   0  0  0  0  0  0  0  0  0  0  0  0
    0.1590  -16.0440   13.9320 C   0  0  0  0  0  0  0  0  0  0  0  0
    1.1220  -15.6050   13.0260 C   0  0  0  0  0  0  0  0  0  0  0  0
    2.2440  -16.3900   12.7700 C   0  0  0  0  0  0  0  0  0  0  0  0
    2.4020  -17.6170   13.4160 C   0  0  0  0  0  0  0  0  0  0  0  0
  2  3  1  0
  2  1  1  0
  4  3  1  0
  5  4  1  0
  6  5  2  0
  6 14  1  0
  7  6  1  0
  8  7  2  0
  9  8  1  0
 10  9  2  0
 10 11  1  0
 11 12  2  0
 12  7  1  0
 12 13  1  0
 13 15  1  0
 13  5  1  0
 14  2  1  0
 16 17  2  0
 16 15  1  0
 18 17  1  0
 19 18  2  0
 20 19  1  0
 20 21  2  0
 21 16  1  0
M  END
$$$$
