lig_033
     RDKit          3D

 29 32  0  0  0  0  0  0  0  0999 V2000
  126.2010  142.0640  101.1990 N   0  0  0  0  0  0  0  0  0  0  0  0
  127.3290  141.1260  101.3310 C   0  0  0  0  0  0  0  0  0  0  0  0
  127.1760  140.0890  102.4070 C   0  0  0  0  0  0  0  0  0  0  0  0
  126.2440  140.1590  103.3740 C   0  0  0  0  0  0  0  0  0  0  0  0
  125.3070  141.3390  103.4540 C   0  0  0  0  0  0  0  0  0  0  0  0
  125.7630  142.4940  102.5410 C   0  0  0  0  0  0  0  0  0  0  0  0
  126.1050  139.1940  104.4180 C   0  0  0  0  0  0  0  0  0  0  0  0
  126.4920  137.8760  104.3010 C   0  0  0  0  0  0  0  0  0  0  0  0
  126.2280  137.2530  105.4920 N   0  0  0  0  0  0  0  0  0  0  0  0
  125.6590  138.1400  106.3790 C   0  0  0  0  0  0  0  0  0  0  0  0
  125.2250  137.9380  107.6950 C   0  0  0  0  0  0  0  0  0  0  0  0
  124.6680  139.0290  108.3690 C   0  0  0  0  0  0  0  0  0  0  0  0
  124.5490  140.2650  107.7400 C   0  0  0  0  0  0  0  0  0  0  0  0
  123.8480  141.5870  108.5950 Cl  0  0  0  0  0  0  0  0  0  0  0  0
  124.9870  140.4560  106.4260 C   0  0  0  0  0  0  0  0  0  0  0  0
  125.5630  139.3730  105.7280 C   0  0  0  0  0  0  0  0  0  0  0  0
  125.0790  141.5090  100.4190 C   0  0  0  0  0  0  0  0  0  0  0  0
  123.8140  142.3880  100.4710 C   0  0  0  0  0  0  0  0  0  0  0  0
  122.6270  141.5320  100.5910 N   0  0  0  0  0  0  0  0  0  0  0  0
  121.6750  141.6260  101.9690 S   0  0  0  0  0  0  0  0  0  0  0  0
  120.2890  141.5880  101.5630 O   0  0  0  0  0  0  0  0  0  0  0  0
  122.2110  142.7140  102.7570 O   0  0  0  0  0  0  0  0  0  0  0  0
  121.6530  138.5680  106.2560 C   0  0  0  0  0  0  0  0  0  0  0  0
  122.0380  138.7610  104.8190 C   0  0  0  0  0  0  0  0  0  0  0  0
  122.6710  137.7310  104.1080 C   0  0  0  0  0  0  0  0  0  0  0  0
  123.0170  137.8980  102.7650 C   0  0  0  0  0  0  0  0  0  0  0  0
  122.7160  139.0900  102.1100 C   0  0  0  0  0  0  0  0  0  0  0  0
  122.0570  140.1070  102.8060 C   0  0  0  0  0  0  0  0  0  0  0  0
  121.7250  139.9530  104.1560 C   0  0  0  0  0  0  0  0  0  0  0  0
  1  2  1  0
  1  6  1  0
  2  3  1  0
  3  4  2  0
  4  5  1  0
  4  7  1  0
  6  5  1  0
  7 16  1  0
  8  7  2  0
  8  9  1  0
  9 10  1  0
 10 11  1  0
 11 12  2  0
 13 12  1  0
 13 14  1  0
 15 13  2  0
 16 10  2  0
 16 15  1  0
 17 18  1  0
 17  1  1  0
 18 19  1  0
 19 20  1  0
 20 22  2  0
 20 28  1  0
 21 20  2  0
 24 23  1  0
 25 24  1  0
 26 25  2  0
 27 26  1  0
 27 28  2  0
 28 29  1  0
 29 24  2  0
M  END
$$$$
