lig_032
     RDKit          3D

 31 36  0  0  1  0  0  0  0  0999 V2000
   10.2620    4.8970  -14.3090 C   0  0  0  0  0  0  0  0  0  0  0  0
   10.1590    3.5130  -13.8370 N   0  0  0  0  0  0  0  0  0  0  0  0
    8.8950    3.2460  -13.1070 C   0  0  0  0  0  0  0  0  0  0  0  0
    7.7750    2.5730  -13.9320 C   0  0  0  0  0  0  0  0  0  0  0  0
    8.2130    1.2940  -14.5480 N   0  0  0  0  0  0  0  0  0  0  0  0
    7.4490    0.8720  -15.6120 C   0  0  0  0  0  0  0  0  0  0  0  0
    7.8700    0.9000  -16.8770 N   0  0  0  0  0  0  0  0  0  0  0  0
    6.6730    0.3650  -17.8720 S   0  0  0  0  0  0  0  0  0  0  0  0
    5.5250    0.0330  -16.6440 C   0  0  0  0  0  0  0  0  0  0  0  0
    4.2210   -0.4780  -16.7580 C   0  0  0  0  0  0  0  0  0  0  0  0
    3.4820   -0.6820  -15.5900 C   0  0  0  0  0  0  0  0  0  0  0  0
    4.0290   -0.3910  -14.3460 C   0  0  0  0  0  0  0  0  0  0  0  0
    5.3280    0.1200  -14.2480 C   0  0  0  0  0  0  0  0  0  0  0  0
    6.1020    0.3550  -15.4140 C   0  0  0  0  0  0  0  0  0  0  0  0
    9.6840    1.1880  -14.6950 C   0  0  0  0  0  0  0  0  0  0  0  0
   10.3150    2.5670  -14.9710 C   0  0  0  0  0  0  0  0  0  0  0  0
    9.5880    5.9240  -13.3840 C   0  0  0  0  0  0  0  0  0  0  0  0
   10.4990    6.4390  -12.2620 C   0  0  0  0  0  0  0  0  0  0  0  0
    9.8170    7.3780  -11.2590 C   0  0  0  0  0  0  0  0  0  0  0  0
   11.8710    8.9900  -10.0000 O   0  0  0  0  0  0  0  0  0  0  0  0
   11.3270    8.0640   -9.4150 C   0  0  0  0  0  0  0  0  0  0  0  0
   11.6280    7.6730   -7.9970 C   0  0  2  0  0  0  0  0  0  0  0  0
   10.6580    6.5000   -7.7130 C   0  0  2  0  0  0  0  0  0  0  0  0
    9.8950    6.3310   -8.9970 C   0  0  0  0  0  0  0  0  0  0  0  0
    9.0020    5.5100   -9.1500 O   0  0  0  0  0  0  0  0  0  0  0  0
   10.3480    7.2440   -9.9090 N   0  0  0  0  0  0  0  0  0  0  0  0
    9.7930    7.0390   -6.5550 C   0  0  1  0  0  0  0  0  0  0  0  0
   10.7040    7.1670   -5.3520 C   0  0  0  0  0  0  0  0  0  0  0  0
   11.5470    8.1850   -5.5980 C   0  0  0  0  0  0  0  0  0  0  0  0
   11.1970    8.7350   -6.9640 C   0  0  2  0  0  0  0  0  0  0  0  0
    9.6780    8.5310   -6.8950 C   0  0  0  0  0  0  0  0  0  0  0  0
  1  2  1  0
  1 17  1  0
  2  3  1  0
  4  3  1  0
  5  4  1  0
  6 14  1  0
  6  5  1  0
  7  6  2  0
  8  7  1  0
  8  9  1  0
  9 14  1  0
 10  9  2  0
 10 11  1  0
 11 12  2  0
 12 13  1  0
 14 13  2  0
 15  5  1  0
 16 15  1  0
 16  2  1  0
 17 18  1  0
 18 19  1  0
 19 26  1  0
 20 21  2  0
 22 21  1  6
 22 23  1  0
 22 30  1  0
 23 24  1  6
 23 27  1  0
 25 24  2  0
 26 21  1  0
 26 24  1  0
 27 31  1  0
 27 28  1  1
 29 28  1  0
 30 31  1  0
 30 29  1  1
M  END
$$$$
