lig_423
     RDKit          3D

 21 23  0  0  0  0  0  0  0  0999 V2000
   -2.3940   10.4120   15.7930 C   0  0  0  0  0  0  0  0  0  0  0  0
   -1.1400   10.0920   16.3020 C   0  0  0  0  0  0  0  0  0  0  0  0
   -0.9060    8.8040   16.7810 C   0  0  0  0  0  0  0  0  0  0  0  0
   -1.9560    7.8630   16.7270 C   0  0  0  0  0  0  0  0  0  0  0  0
   -2.0610    6.4890   17.1210 C   0  0  0  0  0  0  0  0  0  0  0  0
   -3.2990    5.9330   16.8450 C   0  0  0  0  0  0  0  0  0  0  0  0
   -4.3560    7.1020   16.1710 S   0  0  0  0  0  0  0  0  0  0  0  0
   -3.1570    8.3070   16.1880 C   0  0  0  0  0  0  0  0  0  0  0  0
   -3.4250    9.5420   15.7170 N   0  0  0  0  0  0  0  0  0  0  0  0
   -1.0480    5.7950   17.6960 N   0  0  0  0  0  0  0  0  0  0  0  0
   -3.7440    4.5790   17.1420 C   0  0  0  0  0  0  0  0  0  0  0  0
   -2.9590    3.6350   17.2710 O   0  0  0  0  0  0  0  0  0  0  0  0
   -5.1900    4.2620   17.2890 C   0  0  0  0  0  0  0  0  0  0  0  0
   -6.0240    5.0230   18.1180 C   0  0  0  0  0  0  0  0  0  0  0  0
   -7.3810    4.7100   18.2150 C   0  0  0  0  0  0  0  0  0  0  0  0
   -7.9090    3.6510   17.4750 C   0  0  0  0  0  0  0  0  0  0  0  0
   -7.0850    2.9060   16.6300 C   0  0  0  0  0  0  0  0  0  0  0  0
   -5.7280    3.2150   16.5300 C   0  0  0  0  0  0  0  0  0  0  0  0
   -2.6520   11.8000   15.2530 C   0  0  0  0  0  0  0  0  0  0  0  0
   -2.6750   13.4490   17.1560 C   0  0  0  0  0  0  0  0  0  0  0  0
   -3.5230   12.6170   16.2070 C   0  0  0  0  0  0  0  0  0  0  0  0
  1  2  1  0
  2  3  2  0
  4  3  1  0
  4  5  1  0
  5 10  1  0
  6  5  2  0
  6 11  1  0
  7  8  1  0
  7  6  1  0
  8  4  2  0
  9  1  2  0
  9  8  1  0
 11 12  2  0
 11 13  1  0
 13 14  2  0
 14 15  1  0
 16 15  2  0
 17 16  1  0
 18 17  2  0
 18 13  1  0
 19  1  1  0
 19 21  1  0
 21 20  1  0
M  END
$$$$
