lig_216
     RDKit          3D

 20 22  0  0  0  0  0  0  0  0999 V2000
   -3.4070    5.5420   17.2770 C   0  0  0  0  0  0  0  0  0  0  0  0
   -4.7060    5.7600   16.8420 C   0  0  0  0  0  0  0  0  0  0  0  0
   -5.0840    6.9110   16.2360 N   0  0  0  0  0  0  0  0  0  0  0  0
   -4.1720    7.8690   16.1030 C   0  0  0  0  0  0  0  0  0  0  0  0
   -4.5590    9.0440   15.5030 N   0  0  0  0  0  0  0  0  0  0  0  0
   -2.9040    7.7520   16.4800 N   0  0  0  0  0  0  0  0  0  0  0  0
   -2.5270    6.5870   17.0610 C   0  0  0  0  0  0  0  0  0  0  0  0
   -5.7970    4.7770   16.9690 C   0  0  0  0  0  0  0  0  0  0  0  0
   -6.8840    5.0310   17.8260 C   0  0  0  0  0  0  0  0  0  0  0  0
   -7.9280    4.1130   17.9580 C   0  0  0  0  0  0  0  0  0  0  0  0
   -7.9010    2.9200   17.2410 C   0  0  0  0  0  0  0  0  0  0  0  0
   -6.8270    2.6410   16.4000 C   0  0  0  0  0  0  0  0  0  0  0  0
   -5.7810    3.5570   16.2690 C   0  0  0  0  0  0  0  0  0  0  0  0
   -1.1140    6.5520   17.4260 C   0  0  0  0  0  0  0  0  0  0  0  0
   -0.3430    5.6260   18.1850 C   0  0  0  0  0  0  0  0  0  0  0  0
    0.9490    6.1000   18.1890 C   0  0  0  0  0  0  0  0  0  0  0  0
    1.0350    7.2470   17.4730 O   0  0  0  0  0  0  0  0  0  0  0  0
   -0.2120    7.5100   17.0050 C   0  0  0  0  0  0  0  0  0  0  0  0
   -2.7130    3.3200   18.4070 N   0  0  0  0  0  0  0  0  0  0  0  0
   -3.0210    4.3190   17.9010 C   0  0  0  0  0  0  0  0  0  0  0  0
  1 20  1  0
  2  8  1  0
  2  1  2  0
  3  2  1  0
  4  3  2  0
  4  6  1  0
  5  4  1  0
  6  7  2  0
  7  1  1  0
  7 14  1  0
  8  9  2  0
  9 10  1  0
 11 10  2  0
 12 11  1  0
 13 12  2  0
 13  8  1  0
 14 15  1  0
 15 16  2  0
 17 16  1  0
 18 14  2  0
 18 17  1  0
 20 19  3  0
M  END
$$$$
