lig_018
     RDKit          3D

 39 46  0  0  1  0  0  0  0  0999 V2000
  182.1440  166.2430  176.1720 C   0  0  0  0  0  0  0  0  0  0  0  0
  182.7900  165.0810  175.7190 C   0  0  0  0  0  0  0  0  0  0  0  0
  183.8020  165.1400  174.7340 C   0  0  0  0  0  0  0  0  0  0  0  0
  184.1470  166.3590  174.1560 C   0  0  0  0  0  0  0  0  0  0  0  0
  183.4110  167.4620  174.5420 C   0  0  0  0  0  0  0  0  0  0  0  0
  182.4980  167.4360  175.5680 C   0  0  0  0  0  0  0  0  0  0  0  0
  182.1080  168.6950  175.9490 O   0  0  0  0  0  0  0  0  0  0  0  0
  182.8800  169.6330  175.1320 C   0  0  1  0  0  0  0  0  0  0  0  0
  183.9330  170.4810  175.9320 C   0  0  1  0  0  0  0  0  0  0  0  0
  185.0040  169.5560  176.5470 C   0  0  0  0  0  0  0  0  0  0  0  0
  185.7770  168.8140  175.4450 C   0  0  0  0  0  0  0  0  0  0  0  0
  185.1430  169.0790  174.0310 C   0  0  1  0  0  0  0  0  0  0  0  0
  185.4100  170.5880  173.8130 C   0  0  0  0  0  0  0  0  0  0  0  0
  184.6430  171.4160  174.8830 C   0  0  2  0  0  0  0  0  0  0  0  0
  185.7050  168.0950  172.9520 C   0  0  1  0  0  0  0  0  0  0  0  0
  185.3610  166.5780  173.2860 C   0  0  0  0  0  0  0  0  0  0  0  0
  185.2120  168.3390  171.5790 N   0  0  0  0  0  0  0  0  0  0  0  0
  183.9360  169.0520  171.4710 C   0  0  0  0  0  0  0  0  0  0  0  0
  182.9560  168.9440  172.6440 C   0  0  0  0  0  0  0  0  0  0  0  0
  183.6200  168.8420  174.0350 C   0  0  1  0  0  0  0  0  0  0  0  0
  181.0120  165.1360  177.9410 C   0  0  0  0  0  0  0  0  0  0  0  0
  181.2180  166.3120  177.1720 O   0  0  0  0  0  0  0  0  0  0  0  0
  183.3520  171.3560  176.9070 O   0  0  0  0  0  0  0  0  0  0  0  0
  183.4950  170.9950  178.2720 C   0  0  0  0  0  0  0  0  0  0  0  0
  185.5630  172.4750  175.5210 C   0  0  0  0  0  0  0  0  0  0  0  0
  186.7730  172.6070  174.7650 O   0  0  0  0  0  0  0  0  0  0  0  0
  187.5870  173.7010  175.1850 C   0  0  0  0  0  0  0  0  0  0  0  0
  187.7060  174.6810  174.0620 C   0  0  0  0  0  0  0  0  0  0  0  0
  186.6580  175.1880  173.3910 C   0  0  0  0  0  0  0  0  0  0  0  0
  186.7720  176.1470  172.2850 C   0  0  0  0  0  0  0  0  0  0  0  0
  187.5180  177.3170  172.4760 C   0  0  0  0  0  0  0  0  0  0  0  0
  187.6730  178.2410  171.4400 C   0  0  0  0  0  0  0  0  0  0  0  0
  187.0920  177.9990  170.1970 C   0  0  0  0  0  0  0  0  0  0  0  0
  186.3620  176.8310  169.9880 C   0  0  0  0  0  0  0  0  0  0  0  0
  186.2060  175.9070  171.0260 C   0  0  0  0  0  0  0  0  0  0  0  0
  186.2200  168.9360  170.6910 C   0  0  0  0  0  0  0  0  0  0  0  0
  187.4320  168.1020  170.3890 C   0  0  0  0  0  0  0  0  0  0  0  0
  187.6290  166.6540  170.7650 C   0  0  0  0  0  0  0  0  0  0  0  0
  187.4150  167.0320  169.3240 C   0  0  0  0  0  0  0  0  0  0  0  0
  1 22  1  0
  2  1  1  0
  3  2  2  0
  4  5  2  0
  4  3  1  0
  5  6  1  0
  6  7  1  0
  6  1  2  0
  8  9  1  0
  8  7  1  1
  9 10  1  0
  9 23  1  1
 11 10  1  0
 12 13  1  6
 12 20  1  0
 12 11  1  0
 13 14  1  0
 14 25  1  1
 14  9  1  0
 15 16  1  1
 15 12  1  0
 16  4  1  0
 17 15  1  0
 18 17  1  0
 18 19  1  0
 20 19  1  6
 20  5  1  0
 20  8  1  0
 22 21  1  0
 23 24  1  0
 26 27  1  0
 26 25  1  0
 28 27  1  0
 29 28  2  0
 30 31  2  0
 30 29  1  0
 32 31  1  0
 33 32  2  0
 34 33  1  0
 34 35  2  0
 35 30  1  0
 36 17  1  0
 37 36  1  0
 37 38  1  0
 39 37  1  0
 39 38  1  0
M  END
$$$$
