lig_003
     RDKit          3D

 29 33  0  0  1  0  0  0  0  0999 V2000
   14.1420   -0.9440   56.2700 N   0  0  0  0  0  0  0  0  0  0  0  0
   14.5930   -0.1790   57.4450 C   0  0  0  0  0  0  0  0  0  0  0  0
   13.4780    0.2950   58.3850 C   0  0  0  0  0  0  0  0  0  0  0  0
   12.3500    0.9270   57.5710 C   0  0  1  0  0  0  0  0  0  0  0  0
   11.7930   -0.0750   56.5040 C   0  0  1  0  0  0  0  0  0  0  0  0
   12.7140   -1.2880   56.3350 C   0  0  0  0  0  0  0  0  0  0  0  0
   10.4590   -0.4310   57.0920 C   0  0  0  0  0  0  0  0  0  0  0  0
    9.5560   -1.4230   56.7430 C   0  0  0  0  0  0  0  0  0  0  0  0
    8.4100   -1.5870   57.5320 C   0  0  0  0  0  0  0  0  0  0  0  0
    8.1830   -0.7750   58.6580 C   0  0  0  0  0  0  0  0  0  0  0  0
    9.0900    0.2280   58.9850 C   0  0  0  0  0  0  0  0  0  0  0  0
   10.2090    0.3970   58.1790 C   0  0  0  0  0  0  0  0  0  0  0  0
   11.2050    1.3760   58.3810 N   0  0  0  0  0  0  0  0  0  0  0  0
   11.2410    1.7590   59.7830 C   0  0  0  0  0  0  0  0  0  0  0  0
    9.8000    2.0850   60.2330 C   0  0  0  0  0  0  0  0  0  0  0  0
    8.8880    0.9680   60.1210 O   0  0  0  0  0  0  0  0  0  0  0  0
   14.4990   -0.3030   54.9960 C   0  0  0  0  0  0  0  0  0  0  0  0
   15.6050    0.7510   55.1670 C   0  0  0  0  0  0  0  0  0  0  0  0
   17.0200    0.1700   55.0700 C   0  0  0  0  0  0  0  0  0  0  0  0
   17.8860    0.6220   56.2320 C   0  0  0  0  0  0  0  0  0  0  0  0
   17.7700    1.7440   56.7280 O   0  0  0  0  0  0  0  0  0  0  0  0
   18.7570   -0.8610   58.0660 C   0  0  0  0  0  0  0  0  0  0  0  0
   19.7710   -1.6820   58.5710 C   0  0  0  0  0  0  0  0  0  0  0  0
   20.8580   -2.0290   57.7740 C   0  0  0  0  0  0  0  0  0  0  0  0
   21.8050   -2.8350   58.2680 F   0  0  0  0  0  0  0  0  0  0  0  0
   20.9800   -1.5460   56.4780 C   0  0  0  0  0  0  0  0  0  0  0  0
   20.0090   -0.6820   55.9730 C   0  0  0  0  0  0  0  0  0  0  0  0
   18.9130   -0.3150   56.7710 C   0  0  0  0  0  0  0  0  0  0  0  0
   17.7390   -0.4300   58.9420 N   0  0  0  0  0  0  0  0  0  0  0  0
  1  6  1  0
  1  2  1  0
  2  3  1  0
  4 13  1  0
  4  3  1  1
  5  6  1  1
  5  7  1  0
  5  4  1  0
  7 12  1  0
  8  7  2  0
  8  9  1  0
  9 10  2  0
 10 11  1  0
 11 16  1  0
 12 13  1  0
 12 11  2  0
 13 14  1  0
 14 15  1  0
 16 15  1  0
 17 18  1  0
 17  1  1  0
 19 18  1  0
 19 20  1  0
 20 21  2  0
 20 28  1  0
 22 23  1  0
 22 29  1  0
 24 25  1  0
 24 23  2  0
 26 24  1  0
 27 26  2  0
 27 28  1  0
 28 22  2  0
M  END
$$$$
