lig_032
     RDKit          3D

 31 35  0  0  1  0  0  0  0  0999 V2000
  186.8710  167.9370  170.3520 C   0  0  0  0  0  0  0  0  0  0  0  0
  185.9280  167.9900  171.5300 C   0  0  0  0  0  0  0  0  0  0  0  0
  185.0600  167.1240  171.6320 O   0  0  0  0  0  0  0  0  0  0  0  0
  186.0870  169.0460  172.4350 N   0  0  0  0  0  0  0  0  0  0  0  0
  187.4260  169.6640  172.5980 C   0  0  0  0  0  0  0  0  0  0  0  0
  187.3700  171.1760  172.8240 C   0  0  0  0  0  0  0  0  0  0  0  0
  186.3790  171.4740  173.8810 C   0  0  0  0  0  0  0  0  0  0  0  0
  185.3730  170.5800  174.2040 C   0  0  0  0  0  0  0  0  0  0  0  0
  184.6010  171.1910  175.1620 N   0  0  0  0  0  0  0  0  0  0  0  0
  185.1160  172.4250  175.4900 C   0  0  0  0  0  0  0  0  0  0  0  0
  184.6610  173.3710  176.4150 C   0  0  0  0  0  0  0  0  0  0  0  0
  185.3890  174.5540  176.5220 C   0  0  0  0  0  0  0  0  0  0  0  0
  184.9900  175.4860  177.3980 F   0  0  0  0  0  0  0  0  0  0  0  0
  186.5150  174.7970  175.7450 C   0  0  0  0  0  0  0  0  0  0  0  0
  186.9520  173.8420  174.8200 C   0  0  0  0  0  0  0  0  0  0  0  0
  186.2400  172.6310  174.6920 C   0  0  0  0  0  0  0  0  0  0  0  0
  185.1100  169.1940  173.5970 C   0  0  2  0  0  0  0  0  0  0  0  0
  185.4130  168.0810  174.6370 C   0  0  0  0  0  0  0  0  0  0  0  0
  184.3580  167.9100  175.7390 C   0  0  0  0  0  0  0  0  0  0  0  0
  182.8560  167.8210  175.2580 C   0  0  2  0  0  0  0  0  0  0  0  0
  182.8680  167.9230  173.6870 C   0  0  0  0  0  0  0  0  0  0  0  0
  183.6240  169.1390  173.1280 C   0  0  0  0  0  0  0  0  0  0  0  0
  182.0040  168.9960  175.8630 C   0  0  0  0  0  0  0  0  0  0  0  0
  180.7000  169.2810  175.4130 C   0  0  0  0  0  0  0  0  0  0  0  0
  179.9520  170.3400  175.9390 C   0  0  0  0  0  0  0  0  0  0  0  0
  180.4730  171.1300  176.9560 C   0  0  0  0  0  0  0  0  0  0  0  0
  181.7310  170.8430  177.4660 C   0  0  0  0  0  0  0  0  0  0  0  0
  182.4770  169.7840  176.9380 C   0  0  0  0  0  0  0  0  0  0  0  0
  182.1930  166.5220  175.6410 N   0  0  0  0  0  0  0  0  0  0  0  0
  181.3720  166.5730  176.8550 C   0  0  0  0  0  0  0  0  0  0  0  0
  183.0850  165.3600  175.7170 C   0  0  0  0  0  0  0  0  0  0  0  0
  1  2  1  0
  2  3  2  0
  2  4  1  0
  4  5  1  0
  4 17  1  0
  5  6  1  0
  6  7  1  0
  7  8  2  0
  7 16  1  0
  8  9  1  0
  9 10  1  0
 10 11  1  0
 11 12  2  0
 12 13  1  0
 14 12  1  0
 15 14  2  0
 16 15  1  0
 16 10  2  0
 17 22  1  6
 17  8  1  0
 17 18  1  0
 18 19  1  0
 20 29  1  6
 20 19  1  0
 20 23  1  0
 21 20  1  0
 22 21  1  0
 23 28  1  0
 24 23  2  0
 24 25  1  0
 25 26  2  0
 26 27  1  0
 28 27  2  0
 29 31  1  0
 29 30  1  0
M  END
$$$$
