lig_084
     RDKit          3D

 34 39  0  0  1  0  0  0  0  0999 V2000
   18.7930   19.1580   11.1630 N   0  0  0  0  0  0  0  0  0  0  0  0
   18.2650   18.2620   10.2630 C   0  0  0  0  0  0  0  0  0  0  0  0
   19.1390   17.3540    9.8890 N   0  0  0  0  0  0  0  0  0  0  0  0
   20.2700   17.6350   10.6250 C   0  0  0  0  0  0  0  0  0  0  0  0
   21.5260   17.0050   10.6990 C   0  0  0  0  0  0  0  0  0  0  0  0
   22.4340   17.5110   11.5710 N   0  0  0  0  0  0  0  0  0  0  0  0
   22.1090   18.5800   12.3260 C   0  0  0  0  0  0  0  0  0  0  0  0
   20.9350   19.2470   12.3280 N   0  0  0  0  0  0  0  0  0  0  0  0
   20.0660   18.7310   11.4460 C   0  0  0  0  0  0  0  0  0  0  0  0
   18.4010   22.5730   12.5520 C   0  0  2  0  0  0  0  0  0  0  0  0
   17.6300   22.7890   11.2580 C   0  0  0  0  0  0  0  0  0  0  0  0
   18.5740   21.6290   11.3820 C   0  0  2  0  0  0  0  0  0  0  0  0
   18.0620   20.2520   11.7890 C   0  0  2  0  0  0  0  0  0  0  0  0
   18.1150   20.3010   13.3420 C   0  0  1  0  0  0  0  0  0  0  0  0
   17.7930   21.7760   13.6870 C   0  0  2  0  0  0  0  0  0  0  0  0
   17.1360   19.4570   13.9540 O   0  0  0  0  0  0  0  0  0  0  0  0
   16.3780   21.9740   13.7080 O   0  0  0  0  0  0  0  0  0  0  0  0
   19.4570   23.5800   12.9250 C   0  0  0  0  0  0  0  0  0  0  0  0
   21.3080   22.3250   14.5530 C   0  0  0  0  0  0  0  0  0  0  0  0
   21.1130   22.8370   12.8280 S   0  0  0  0  0  0  0  0  0  0  0  0
   21.8240   15.9050    9.9090 N   0  0  0  0  0  0  0  0  0  0  0  0
   23.0330   15.8700    9.0950 C   0  0  0  0  0  0  0  0  0  0  0  0
   23.8210   14.5540    9.2920 C   0  0  0  0  0  0  0  0  0  0  0  0
   23.6520   13.5090    8.1870 C   0  0  0  0  0  0  0  0  0  0  0  0
   24.7120   12.4740    8.5380 C   0  0  0  0  0  0  0  0  0  0  0  0
   25.8830   13.2780    9.0990 C   0  0  0  0  0  0  0  0  0  0  0  0
   25.3440   14.6790    9.3980 C   0  0  0  0  0  0  0  0  0  0  0  0
   22.6110   16.0870    7.6240 C   0  0  0  0  0  0  0  0  0  0  0  0
   22.0910   17.5030    7.3500 C   0  0  0  0  0  0  0  0  0  0  0  0
   22.1280   17.6240    5.8320 C   0  0  0  0  0  0  0  0  0  0  0  0
   23.2420   16.6880    5.3660 C   0  0  0  0  0  0  0  0  0  0  0  0
   23.7560   15.9780    6.6140 C   0  0  0  0  0  0  0  0  0  0  0  0
   23.3220   19.2000   13.4740 S   0  0  0  0  0  0  0  0  0  0  0  0
   23.1920   17.9600   14.7850 C   0  0  0  0  0  0  0  0  0  0  0  0
  1  9  1  0
  2  1  1  0
  3  2  2  0
  3  4  1  0
  4  5  2  0
  4  9  1  0
  5  6  1  0
  6  7  2  0
  7  8  1  0
  7 33  1  0
  9  8  2  0
 10 18  1  1
 10 15  1  0
 11 10  1  0
 12 11  1  6
 12 13  1  0
 12 10  1  0
 13  1  1  6
 13 14  1  0
 14 15  1  0
 14 16  1  1
 15 17  1  6
 20 18  1  0
 20 19  1  0
 21  5  1  0
 22 23  1  0
 22 21  1  0
 23 27  1  0
 24 25  1  0
 24 23  1  0
 25 26  1  0
 26 27  1  0
 28 22  1  0
 29 28  1  0
 30 29  1  0
 31 30  1  0
 31 32  1  0
 32 28  1  0
 33 34  1  0
M  END
$$$$
