lig_084
     RDKit          3D

 31 35  0  0  0  0  0  0  0  0999 V2000
   -2.3120   10.7860   15.0850 N   0  0  0  0  0  0  0  0  0  0  0  0
   -3.4820   10.0740   15.2040 C   0  0  0  0  0  0  0  0  0  0  0  0
   -3.1190    8.9480   15.8800 C   0  0  0  0  0  0  0  0  0  0  0  0
   -1.7420    9.0540   16.1320 C   0  0  0  0  0  0  0  0  0  0  0  0
   -0.9770    8.0830   16.8150 N   0  0  0  0  0  0  0  0  0  0  0  0
   -1.6390    7.0360   17.2200 C   0  0  0  0  0  0  0  0  0  0  0  0
   -1.1150    5.9520   17.9040 N   0  0  0  0  0  0  0  0  0  0  0  0
    0.2080    5.7310   18.2480 C   0  0  0  0  0  0  0  0  0  0  0  0
    1.1150    6.5500   18.1440 O   0  0  0  0  0  0  0  0  0  0  0  0
   -3.0190    6.8290   17.0230 N   0  0  0  0  0  0  0  0  0  0  0  0
   -3.7160    5.7500   17.4410 N   0  0  0  0  0  0  0  0  0  0  0  0
   -4.9500    6.0630   16.9950 C   0  0  0  0  0  0  0  0  0  0  0  0
   -5.0530    7.2750   16.3320 N   0  0  0  0  0  0  0  0  0  0  0  0
   -3.8230    7.7120   16.3760 C   0  0  0  0  0  0  0  0  0  0  0  0
   -1.2350   10.1810   15.6490 N   0  0  0  0  0  0  0  0  0  0  0  0
   -6.1810    5.1250   17.2140 C   0  0  0  0  0  0  0  0  0  0  0  0
   -7.3160    5.4470   17.9310 C   0  0  0  0  0  0  0  0  0  0  0  0
   -8.1690    4.3180   17.8720 C   0  0  0  0  0  0  0  0  0  0  0  0
   -7.5030    3.3770   17.1240 C   0  0  0  0  0  0  0  0  0  0  0  0
   -6.2980    3.8550   16.7210 O   0  0  0  0  0  0  0  0  0  0  0  0
   -2.1470   12.0780   14.4380 C   0  0  0  0  0  0  0  0  0  0  0  0
   -3.0310   13.1490   15.0750 C   0  0  0  0  0  0  0  0  0  0  0  0
   -2.5070   13.6430   17.4810 C   0  0  0  0  0  0  0  0  0  0  0  0
   -2.2650   14.0780   16.0340 C   0  0  0  0  0  0  0  0  0  0  0  0
   -2.6620   15.5450   15.8630 C   0  0  0  0  0  0  0  0  0  0  0  0
    0.4540    4.3660   18.8790 C   0  0  0  0  0  0  0  0  0  0  0  0
   -0.6390    3.3830   18.5660 C   0  0  0  0  0  0  0  0  0  0  0  0
   -1.0200    2.2970   19.4220 C   0  0  0  0  0  0  0  0  0  0  0  0
   -2.0390    1.5370   18.8930 C   0  0  0  0  0  0  0  0  0  0  0  0
   -2.5520    2.1230   17.3730 S   0  0  0  0  0  0  0  0  0  0  0  0
   -1.4150    3.3990   17.4210 C   0  0  0  0  0  0  0  0  0  0  0  0
  1  2  1  0
  1 15  1  0
  2  3  2  0
  3  4  1  0
  3 14  1  0
  4  5  1  0
  5  6  2  0
  6  7  1  0
  7  8  1  0
  8 26  1  0
  9  8  2  0
 10  6  1  0
 10 11  1  0
 12 16  1  0
 12 11  2  0
 13 14  2  0
 13 12  1  0
 14 10  1  0
 15  4  2  0
 16 17  2  0
 18 17  1  0
 19 18  2  0
 20 19  1  0
 20 16  1  0
 21 22  1  0
 21  1  1  0
 22 24  1  0
 24 23  1  0
 25 24  1  0
 27 26  1  0
 27 28  1  0
 29 28  2  0
 30 31  1  0
 30 29  1  0
 31 27  2  0
M  END
$$$$
