lig_492
     RDKit          3D

 31 35  0  0  0  0  0  0  0  0999 V2000
   -3.9990    7.0320   16.2060 C   0  0  0  0  0  0  0  0  0  0  0  0
   -3.5560    8.3200   16.4110 C   0  0  0  0  0  0  0  0  0  0  0  0
   -4.1010    9.2810   15.5890 C   0  0  0  0  0  0  0  0  0  0  0  0
   -5.0180    9.0000   14.6400 N   0  0  0  0  0  0  0  0  0  0  0  0
   -5.3750    7.7240   14.5140 C   0  0  0  0  0  0  0  0  0  0  0  0
   -6.3170    7.4160   13.5570 N   0  0  0  0  0  0  0  0  0  0  0  0
   -4.9220    6.7260   15.2720 N   0  0  0  0  0  0  0  0  0  0  0  0
   -1.0960    6.6840   16.8650 C   0  0  0  0  0  0  0  0  0  0  0  0
   -2.1520    5.7200   17.3570 C   0  0  0  0  0  0  0  0  0  0  0  0
   -1.7910    4.6400   18.1970 C   0  0  0  0  0  0  0  0  0  0  0  0
   -2.7610    3.7320   18.6450 C   0  0  0  0  0  0  0  0  0  0  0  0
   -4.0920    3.8840   18.2740 C   0  0  0  0  0  0  0  0  0  0  0  0
   -4.4630    4.9590   17.4700 C   0  0  0  0  0  0  0  0  0  0  0  0
   -3.5170    5.9010   17.0150 C   0  0  0  0  0  0  0  0  0  0  0  0
   -0.4340    4.4330   18.6260 C   0  0  0  0  0  0  0  0  0  0  0  0
    0.6610    4.2610   18.9670 N   0  0  0  0  0  0  0  0  0  0  0  0
   -3.6990   10.6680   15.7210 C   0  0  0  0  0  0  0  0  0  0  0  0
   -2.5100   11.2200   15.2970 C   0  0  0  0  0  0  0  0  0  0  0  0
   -2.6070   12.5300   15.6630 N   0  0  0  0  0  0  0  0  0  0  0  0
   -3.7930   12.7880   16.2500 N   0  0  0  0  0  0  0  0  0  0  0  0
   -4.4680   11.6470   16.3000 N   0  0  0  0  0  0  0  0  0  0  0  0
   -1.6560   13.6000   15.4280 C   0  0  0  0  0  0  0  0  0  0  0  0
   -2.3460   14.9140   15.1660 C   0  0  0  0  0  0  0  0  0  0  0  0
   -2.0480   16.0330   15.9750 C   0  0  0  0  0  0  0  0  0  0  0  0
   -2.6500   17.2710   15.7730 C   0  0  0  0  0  0  0  0  0  0  0  0
   -3.5790   17.4470   14.7450 C   0  0  0  0  0  0  0  0  0  0  0  0
   -3.9020   16.3600   13.9130 C   0  0  0  0  0  0  0  0  0  0  0  0
   -4.7800   16.2070   12.8050 C   0  0  0  0  0  0  0  0  0  0  0  0
   -4.6880   14.9040   12.3760 C   0  0  0  0  0  0  0  0  0  0  0  0
   -3.7860   14.2620   13.1820 N   0  0  0  0  0  0  0  0  0  0  0  0
   -3.2860   15.1260   14.1360 C   0  0  0  0  0  0  0  0  0  0  0  0
  1  2  1  0
  1 14  1  0
  3 17  1  0
  3  2  2  0
  4  3  1  0
  5  4  2  0
  5  7  1  0
  6  5  1  0
  7  1  2  0
  8  9  1  0
  9 10  2  0
 10 15  1  0
 10 11  1  0
 12 11  2  0
 13 12  1  0
 14  9  1  0
 14 13  2  0
 15 16  3  0
 17 21  1  0
 18 19  1  0
 18 17  2  0
 19 20  1  0
 20 21  2  0
 22 19  1  0
 23 22  1  0
 23 24  1  0
 25 24  2  0
 26 25  1  0
 27 31  1  0
 27 26  2  0
 28 27  1  0
 29 28  2  0
 29 30  1  0
 30 31  1  0
 31 23  2  0
M  END
$$$$
