lig_055
     RDKit          3D

 19 21  0  0  1  0  0  0  0  0999 V2000
  -24.4120   -0.5520   10.3780 C   0  0  0  0  0  0  0  0  0  0  0  0
  -25.6520   -0.7150    9.7800 C   0  0  0  0  0  0  0  0  0  0  0  0
  -26.4450    0.4110    9.5530 C   0  0  0  0  0  0  0  0  0  0  0  0
  -26.0020    1.6990    9.9180 C   0  0  0  0  0  0  0  0  0  0  0  0
  -24.7500    1.8550   10.5460 C   0  0  0  0  0  0  0  0  0  0  0  0
  -23.9660    0.7160   10.7540 C   0  0  0  0  0  0  0  0  0  0  0  0
  -24.2210    3.2130   10.9380 C   0  0  0  0  0  0  0  0  0  0  0  0
  -25.2760    4.3190   10.9190 C   0  0  0  0  0  0  0  0  0  0  0  0
  -26.1810    4.2530    9.6760 C   0  0  2  0  0  0  0  0  0  0  0  0
  -26.9180    2.8820    9.6750 C   0  0  2  0  0  0  0  0  0  0  0  0
  -23.5820   -1.6130   10.6220 O   0  0  0  0  0  0  0  0  0  0  0  0
  -22.7320    0.8320   11.3350 O   0  0  0  0  0  0  0  0  0  0  0  0
  -25.3660    4.5380    8.4770 N   0  0  0  0  0  0  0  0  0  0  0  0
  -25.9080    5.5760    7.6090 C   0  0  0  0  0  0  0  0  0  0  0  0
  -24.9260    6.7410    7.4770 C   0  0  0  0  0  0  0  0  0  0  0  0
  -25.7760    7.8680    6.9000 C   0  0  0  0  0  0  0  0  0  0  0  0
  -27.2050    7.5940    7.3710 C   0  0  0  0  0  0  0  0  0  0  0  0
  -27.1520    6.2800    8.1460 C   0  0  0  0  0  0  0  0  0  0  0  0
  -27.9320    2.8880   10.6880 O   0  0  0  0  0  0  0  0  0  0  0  0
  1 11  1  0
  1  6  2  0
  2  1  1  0
  3  2  2  0
  3  4  1  0
  4  5  2  0
  5  6  1  0
  5  7  1  0
  6 12  1  0
  8  7  1  0
  9 13  1  6
  9  8  1  0
 10  9  1  0
 10  4  1  0
 10 19  1  1
 14 18  1  0
 14 13  1  0
 15 14  1  0
 16 17  1  0
 16 15  1  0
 17 18  1  0
M  END
$$$$
