lig_373
     RDKit          3D

 21 23  0  0  1  0  0  0  0  0999 V2000
   -1.5770   12.7370   14.5060 C   0  0  1  0  0  0  0  0  0  0  0  0
   -1.6700   11.3100   14.3400 O   0  0  0  0  0  0  0  0  0  0  0  0
   -2.6750   10.8270   15.2570 C   0  0  2  0  0  0  0  0  0  0  0  0
   -2.9960   11.9530   16.2400 C   0  0  1  0  0  0  0  0  0  0  0  0
   -2.7450   13.1810   15.3820 C   0  0  2  0  0  0  0  0  0  0  0  0
   -2.1990    9.6040   15.8680 N   0  0  0  0  0  0  0  0  0  0  0  0
   -0.9130    9.3720   16.2820 C   0  0  0  0  0  0  0  0  0  0  0  0
   -0.7720    8.1770   16.8140 N   0  0  0  0  0  0  0  0  0  0  0  0
   -2.0280    7.6100   16.7390 C   0  0  0  0  0  0  0  0  0  0  0  0
   -2.5280    6.3560   17.1270 C   0  0  0  0  0  0  0  0  0  0  0  0
   -3.8260    6.0700   16.8770 N   0  0  0  0  0  0  0  0  0  0  0  0
   -4.5870    7.0170   16.2880 C   0  0  0  0  0  0  0  0  0  0  0  0
   -4.2290    8.2560   15.8950 N   0  0  0  0  0  0  0  0  0  0  0  0
   -2.9290    8.4810   16.1460 C   0  0  0  0  0  0  0  0  0  0  0  0
   -1.7460    5.3810   17.7370 N   0  0  0  0  0  0  0  0  0  0  0  0
    1.0440   15.0800   15.9310 C   0  0  0  0  0  0  0  0  0  0  0  0
   -0.1750   14.4910   15.4400 N   0  0  0  0  0  0  0  0  0  0  0  0
   -0.2230   13.1550   15.0960 C   0  0  0  0  0  0  0  0  0  0  0  0
    0.6870   12.3600   15.3070 O   0  0  0  0  0  0  0  0  0  0  0  0
   -4.3470   11.9090   16.7040 O   0  0  0  0  0  0  0  0  0  0  0  0
   -3.9290   13.4080   14.5860 O   0  0  0  0  0  0  0  0  0  0  0  0
  1 18  1  1
  1  5  1  0
  2  1  1  0
  2  3  1  0
  3  6  1  1
  3  4  1  0
  4 20  1  6
  5 21  1  6
  5  4  1  0
  6 14  1  0
  6  7  1  0
  7  8  2  0
  9  8  1  0
  9 10  2  0
 10 15  1  0
 11 10  1  0
 12 11  2  0
 13 14  2  0
 13 12  1  0
 14  9  1  0
 17 16  1  0
 18 19  2  0
 18 17  1  0
M  END
$$$$
