lig_031
     RDKit          3D

 32 35  0  0  1  0  0  0  0  0999 V2000
  178.7990  170.8260  138.9280 C   0  0  0  0  0  0  0  0  0  0  0  0
  179.2640  171.2570  139.9810 O   0  0  0  0  0  0  0  0  0  0  0  0
  179.0500  169.5410  138.4490 N   0  0  0  0  0  0  0  0  0  0  0  0
  180.0150  168.7300  139.1840 C   0  0  0  0  0  0  0  0  0  0  0  0
  180.4830  167.5280  138.3730 C   0  0  0  0  0  0  0  0  0  0  0  0
  179.2890  166.6140  138.0430 C   0  0  0  0  0  0  0  0  0  0  0  0
  178.0190  167.4190  137.6830 C   0  0  0  0  0  0  0  0  0  0  0  0
  178.3000  168.8870  137.3750 C   0  0  0  0  0  0  0  0  0  0  0  0
  177.4580  172.8080  136.0260 C   0  0  0  0  0  0  0  0  0  0  0  0
  176.3130  173.3860  136.5940 C   0  0  0  0  0  0  0  0  0  0  0  0
  175.9760  173.1250  137.9260 C   0  0  0  0  0  0  0  0  0  0  0  0
  176.7880  172.2930  138.6970 C   0  0  0  0  0  0  0  0  0  0  0  0
  177.9420  171.7350  138.1360 C   0  0  0  0  0  0  0  0  0  0  0  0
  178.2720  171.9730  136.7970 C   0  0  0  0  0  0  0  0  0  0  0  0
  177.0530  173.7410  133.8450 O   0  0  0  0  0  0  0  0  0  0  0  0
  177.7620  173.1080  134.6060 C   0  0  0  0  0  0  0  0  0  0  0  0
  178.9440  172.6080  134.2100 O   0  0  0  0  0  0  0  0  0  0  0  0
  179.5570  165.5610  137.0410 N   0  0  0  0  0  0  0  0  0  0  0  0
  180.1760  166.0890  135.8150 C   0  0  0  0  0  0  0  0  0  0  0  0
  180.1200  165.1090  134.6390 C   0  0  0  0  0  0  0  0  0  0  0  0
  180.1580  163.6620  135.1300 C   0  0  0  0  0  0  0  0  0  0  0  0
  178.9670  163.3970  136.0630 C   0  0  0  0  0  0  0  0  0  0  0  0
  178.4420  164.6660  136.7430 C   0  0  0  0  0  0  0  0  0  0  0  0
  180.0880  162.8180  133.9740 O   0  0  0  0  0  0  0  0  0  0  0  0
  181.2220  162.5650  133.2570 C   0  0  0  0  0  0  0  0  0  0  0  0
  181.5650  163.1150  132.0240 C   0  0  0  0  0  0  0  0  0  0  0  0
  182.7690  162.7610  131.4040 C   0  0  0  0  0  0  0  0  0  0  0  0
  183.6390  161.8540  132.0160 C   0  0  0  0  0  0  0  0  0  0  0  0
  185.1060  161.4660  131.1930 Cl  0  0  0  0  0  0  0  0  0  0  0  0
  183.3000  161.3000  133.2530 C   0  0  0  0  0  0  0  0  0  0  0  0
  184.3200  160.1740  134.0740 Cl  0  0  0  0  0  0  0  0  0  0  0  0
  182.0950  161.6580  133.8660 C   0  0  0  0  0  0  0  0  0  0  0  0
  1  2  2  0
  3  1  1  0
  3  4  1  0
  5  4  1  0
  6  5  1  0
  7  6  1  0
  8  7  1  0
  8  3  1  0
  9 10  1  0
  9 14  2  0
 10 11  2  0
 11 12  1  0
 13 12  2  0
 13  1  1  0
 14 13  1  0
 15 16  2  0
 16  9  1  0
 17 16  1  0
 18  6  1  0
 19 18  1  0
 20 21  1  0
 20 19  1  0
 21 24  1  0
 21 22  1  0
 22 23  1  0
 23 18  1  0
 25 32  2  0
 25 24  1  0
 26 25  1  0
 27 28  1  0
 27 26  2  0
 28 30  2  0
 29 28  1  0
 30 32  1  0
 30 31  1  0
M  END
$$$$
