lig_010
     RDKit          3D

 27 31  0  0  0  0  0  0  0  0999 V2000
   13.1940    0.3420   58.9750 N   0  0  0  0  0  0  0  0  0  0  0  0
   14.0620    1.5200   58.9880 C   0  0  0  0  0  0  0  0  0  0  0  0
   15.5290    1.0960   58.8590 C   0  0  0  0  0  0  0  0  0  0  0  0
   15.7290   -0.0700   57.8730 C   0  0  0  0  0  0  0  0  0  0  0  0
   14.5460   -0.1750   56.9090 C   0  0  0  0  0  0  0  0  0  0  0  0
   13.2260   -0.3440   57.6720 C   0  0  0  0  0  0  0  0  0  0  0  0
   17.0470    0.0050   57.1560 C   0  0  0  0  0  0  0  0  0  0  0  0
   17.1230    0.6530   55.9840 N   0  0  0  0  0  0  0  0  0  0  0  0
   18.4420    0.5570   55.5800 O   0  0  0  0  0  0  0  0  0  0  0  0
   19.1510   -0.1450   56.5020 C   0  0  0  0  0  0  0  0  0  0  0  0
   20.5100   -0.4450   56.4380 C   0  0  0  0  0  0  0  0  0  0  0  0
   21.0300   -1.1840   57.5050 C   0  0  0  0  0  0  0  0  0  0  0  0
   20.2170   -1.5900   58.5680 C   0  0  0  0  0  0  0  0  0  0  0  0
   18.8520   -1.2700   58.5990 C   0  0  0  0  0  0  0  0  0  0  0  0
   18.3120   -0.5250   57.5340 C   0  0  0  0  0  0  0  0  0  0  0  0
   11.8180    0.6890   59.3790 C   0  0  0  0  0  0  0  0  0  0  0  0
   11.0460   -0.4890   60.0080 C   0  0  0  0  0  0  0  0  0  0  0  0
    9.0730   -1.8550   61.4100 O   0  0  0  0  0  0  0  0  0  0  0  0
    9.7840   -1.0720   62.0310 C   0  0  0  0  0  0  0  0  0  0  0  0
    9.6510   -0.8820   63.4600 C   0  0  0  0  0  0  0  0  0  0  0  0
    8.8650   -1.5130   64.4350 C   0  0  0  0  0  0  0  0  0  0  0  0
    9.0610   -0.9970   65.6570 N   0  0  0  0  0  0  0  0  0  0  0  0
    9.9700   -0.0220   65.4570 N   0  0  0  0  0  0  0  0  0  0  0  0
   10.3500    0.0770   64.1570 C   0  0  0  0  0  0  0  0  0  0  0  0
   11.3030    1.0260   63.5510 C   0  0  0  0  0  0  0  0  0  0  0  0
   11.8140    0.4030   62.2340 C   0  0  0  0  0  0  0  0  0  0  0  0
   10.7720   -0.2700   61.4290 N   0  0  0  0  0  0  0  0  0  0  0  0
  1  2  1  0
  1 16  1  0
  3  2  1  0
  4  3  1  0
  5  6  1  0
  5  4  1  0
  6  1  1  0
  7 15  1  0
  7  4  1  0
  8  7  2  0
  9  8  1  0
  9 10  1  0
 10 15  1  0
 11 10  2  0
 11 12  1  0
 12 13  2  0
 13 14  1  0
 15 14  2  0
 16 17  1  0
 17 27  1  0
 18 19  2  0
 19 20  1  0
 20 24  2  0
 20 21  1  0
 21 22  2  0
 23 22  1  0
 24 23  1  0
 25 24  1  0
 26 25  1  0
 27 19  1  0
 27 26  1  0
M  END
$$$$
