lig_037
     RDKit          3D

 30 32  0  0  0  0  0  0  0  0999 V2000
   -0.0240  -17.1200   11.6470 C   0  0  0  0  0  0  0  0  0  0  0  0
   -0.1740  -16.3810   12.8020 C   0  0  0  0  0  0  0  0  0  0  0  0
   -0.1880  -15.0130   12.4360 C   0  0  0  0  0  0  0  0  0  0  0  0
   -0.0300  -14.9240   11.0610 C   0  0  0  0  0  0  0  0  0  0  0  0
    0.0900  -16.2230   10.6150 N   0  0  0  0  0  0  0  0  0  0  0  0
    0.0260  -13.7590   10.1540 C   0  0  0  0  0  0  0  0  0  0  0  0
   -0.6850  -12.5980   10.5080 C   0  0  0  0  0  0  0  0  0  0  0  0
   -0.6510  -11.4650    9.6910 C   0  0  0  0  0  0  0  0  0  0  0  0
    0.0650  -11.4670    8.4980 C   0  0  0  0  0  0  0  0  0  0  0  0
    0.7760  -12.6090    8.1300 C   0  0  0  0  0  0  0  0  0  0  0  0
    0.7600  -13.7560    8.9400 C   0  0  0  0  0  0  0  0  0  0  0  0
   -1.5630  -10.0200   10.1810 S   0  0  0  0  0  0  0  0  0  0  0  0
   -1.9310   -9.3270    8.9620 O   0  0  0  0  0  0  0  0  0  0  0  0
   -0.7960   -9.3420   11.2100 O   0  0  0  0  0  0  0  0  0  0  0  0
   -3.0510  -10.6590   10.9230 C   0  0  0  0  0  0  0  0  0  0  0  0
   -4.2090  -10.7740    9.9520 C   0  0  0  0  0  0  0  0  0  0  0  0
    1.4610  -14.8980    8.6200 O   0  0  0  0  0  0  0  0  0  0  0  0
    1.2130  -15.4700    7.3400 C   0  0  0  0  0  0  0  0  0  0  0  0
    0.0530  -18.5950   11.4230 C   0  0  0  0  0  0  0  0  0  0  0  0
    0.7820  -19.3460   12.4560 N   0  0  0  0  0  0  0  0  0  0  0  0
    1.9010  -18.5970   14.5680 C   0  0  0  0  0  0  0  0  0  0  0  0
    1.9290  -18.6380   13.0420 C   0  0  0  0  0  0  0  0  0  0  0  0
    1.1570  -20.6890   11.9800 C   0  0  0  0  0  0  0  0  0  0  0  0
    0.6080  -21.8050   12.8500 C   0  0  0  0  0  0  0  0  0  0  0  0
    1.4030  -22.3870   13.8490 C   0  0  0  0  0  0  0  0  0  0  0  0
    0.9020  -23.4240   14.6400 C   0  0  0  0  0  0  0  0  0  0  0  0
   -0.3950  -23.8880   14.4320 C   0  0  0  0  0  0  0  0  0  0  0  0
   -1.0110  -25.1650   15.4080 Cl  0  0  0  0  0  0  0  0  0  0  0  0
   -1.1960  -23.3260   13.4410 C   0  0  0  0  0  0  0  0  0  0  0  0
   -0.6950  -22.2900   12.6520 C   0  0  0  0  0  0  0  0  0  0  0  0
  1  2  2  0
  3  2  1  0
  4  3  2  0
  5  4  1  0
  5  1  1  0
  6  7  1  0
  6  4  1  0
  8 12  1  0
  8  7  2  0
  9  8  1  0
 10  9  2  0
 10 11  1  0
 11  6  2  0
 12 15  1  0
 12 14  2  0
 13 12  2  0
 16 15  1  0
 17 11  1  0
 18 17  1  0
 19  1  1  0
 19 20  1  0
 20 22  1  0
 22 21  1  0
 23 20  1  0
 23 24  1  0
 24 25  1  0
 25 26  2  0
 27 26  1  0
 27 28  1  0
 29 27  2  0
 30 24  2  0
 30 29  1  0
M  END
$$$$
