lig_116
     RDKit          3D

 27 29  0  0  0  0  0  0  0  0999 V2000
   -0.3850    3.7870   18.7800 C   0  0  0  0  0  0  0  0  0  0  0  0
   -1.2540    2.9950   19.1120 O   0  0  0  0  0  0  0  0  0  0  0  0
   -0.5560    4.9840   18.1620 N   0  0  0  0  0  0  0  0  0  0  0  0
   -1.7370    5.6000   17.7570 C   0  0  0  0  0  0  0  0  0  0  0  0
   -2.9860    5.0490   17.9150 C   0  0  0  0  0  0  0  0  0  0  0  0
   -4.0600    5.7910   17.4590 C   0  0  0  0  0  0  0  0  0  0  0  0
   -3.8900    6.9970   16.8740 N   0  0  0  0  0  0  0  0  0  0  0  0
   -2.6330    7.4710   16.7640 C   0  0  0  0  0  0  0  0  0  0  0  0
   -2.4280    8.7680   16.1590 N   0  0  0  0  0  0  0  0  0  0  0  0
   -1.1650    9.2770   16.0170 N   0  0  0  0  0  0  0  0  0  0  0  0
   -1.3250   10.4660   15.4330 C   0  0  0  0  0  0  0  0  0  0  0  0
   -0.1430   11.3060   15.1240 C   0  0  0  0  0  0  0  0  0  0  0  0
   -2.6800   10.7500   15.1890 C   0  0  0  0  0  0  0  0  0  0  0  0
   -3.3790    9.6580   15.6600 C   0  0  0  0  0  0  0  0  0  0  0  0
   -4.8440    9.4210   15.6630 C   0  0  0  0  0  0  0  0  0  0  0  0
   -1.5450    6.7980   17.1900 N   0  0  0  0  0  0  0  0  0  0  0  0
   -5.4550    5.3310   17.5680 C   0  0  0  0  0  0  0  0  0  0  0  0
   -6.4390    6.1290   18.1540 C   0  0  0  0  0  0  0  0  0  0  0  0
   -7.7450    5.7860   18.2940 N   0  0  0  0  0  0  0  0  0  0  0  0
   -8.1020    4.5670   17.8290 C   0  0  0  0  0  0  0  0  0  0  0  0
   -7.2200    3.6780   17.2330 C   0  0  0  0  0  0  0  0  0  0  0  0
   -5.8870    4.0760   17.1080 C   0  0  0  0  0  0  0  0  0  0  0  0
   -7.5070    2.4350   16.7460 O   0  0  0  0  0  0  0  0  0  0  0  0
   -6.4860    1.7970   15.9870 C   0  0  0  0  0  0  0  0  0  0  0  0
    0.9450    3.5960   18.9870 O   0  0  0  0  0  0  0  0  0  0  0  0
    1.8460    1.3820   18.6020 C   0  0  0  0  0  0  0  0  0  0  0  0
    1.3150    2.3660   19.6270 C   0  0  0  0  0  0  0  0  0  0  0  0
  1 25  1  0
  1  2  2  0
  3  1  1  0
  4  5  2  0
  4  3  1  0
  6 17  1  0
  6  5  1  0
  7  6  2  0
  8  7  1  0
  8 16  2  0
  9  8  1  0
 10  9  1  0
 11 10  2  0
 12 11  1  0
 13 11  1  0
 13 14  2  0
 14 15  1  0
 14  9  1  0
 16  4  1  0
 17 18  2  0
 18 19  1  0
 20 19  2  0
 21 20  1  0
 22 21  2  0
 22 17  1  0
 23 21  1  0
 24 23  1  0
 25 27  1  0
 26 27  1  0
M  END
$$$$
