lig_001
     RDKit          3D

 36 41  0  0  1  0  0  0  0  0999 V2000
  187.9000  171.7360  172.6880 C   0  0  0  0  0  0  0  0  0  0  0  0
  187.4970  172.6840  173.8310 C   0  0  1  0  0  0  0  0  0  0  0  0
  188.0050  174.1170  173.5510 C   0  0  2  0  0  0  0  0  0  0  0  0
  187.9060  174.9310  174.8600 C   0  0  0  0  0  0  0  0  0  0  0  0
  186.6560  174.6930  175.6800 C   0  0  0  0  0  0  0  0  0  0  0  0
  186.4330  175.5290  176.7880 C   0  0  0  0  0  0  0  0  0  0  0  0
  185.3020  175.3670  177.5860 C   0  0  0  0  0  0  0  0  0  0  0  0
  184.3800  174.3650  177.2880 C   0  0  0  0  0  0  0  0  0  0  0  0
  184.5910  173.5340  176.1760 C   0  0  0  0  0  0  0  0  0  0  0  0
  185.7410  173.6640  175.3700 C   0  0  0  0  0  0  0  0  0  0  0  0
  185.9670  172.7670  174.1300 C   0  0  2  0  0  0  0  0  0  0  0  0
  185.4000  171.3450  174.3400 C   0  0  0  0  0  0  0  0  0  0  0  0
  185.2440  173.4250  172.9300 C   0  0  0  0  0  0  0  0  0  0  0  0
  185.8680  174.7620  172.5160 C   0  0  0  0  0  0  0  0  0  0  0  0
  187.3240  174.6720  172.3570 N   0  0  0  0  0  0  0  0  0  0  0  0
  183.1820  174.2250  178.1620 C   0  0  0  0  0  0  0  0  0  0  0  0
  183.3040  174.1990  179.3810 O   0  0  0  0  0  0  0  0  0  0  0  0
  181.9710  174.0740  177.5180 N   0  0  0  0  0  0  0  0  0  0  0  0
  180.7660  173.7430  178.2580 C   0  0  0  0  0  0  0  0  0  0  0  0
  179.7740  172.9090  177.4400 C   0  0  0  0  0  0  0  0  0  0  0  0
  180.2900  171.5190  177.1450 C   0  0  0  0  0  0  0  0  0  0  0  0
  179.5320  170.6220  176.3860 C   0  0  0  0  0  0  0  0  0  0  0  0
  180.0280  169.3480  176.0910 C   0  0  0  0  0  0  0  0  0  0  0  0
  181.2920  168.9380  176.5430 C   0  0  0  0  0  0  0  0  0  0  0  0
  182.0450  169.8470  177.3030 C   0  0  0  0  0  0  0  0  0  0  0  0
  181.5520  171.1220  177.6000 C   0  0  0  0  0  0  0  0  0  0  0  0
  181.8120  167.5980  176.2310 C   0  0  0  0  0  0  0  0  0  0  0  0
  181.2570  166.4510  176.8130 C   0  0  0  0  0  0  0  0  0  0  0  0
  181.7790  165.2090  176.4890 C   0  0  0  0  0  0  0  0  0  0  0  0
  182.8080  165.0270  175.6350 N   0  0  0  0  0  0  0  0  0  0  0  0
  183.3350  166.1380  175.0820 C   0  0  0  0  0  0  0  0  0  0  0  0
  182.8780  167.4210  175.3420 C   0  0  0  0  0  0  0  0  0  0  0  0
  187.8620  175.9520  171.8770 C   0  0  0  0  0  0  0  0  0  0  0  0
  186.7910  176.8110  171.2670 C   0  0  0  0  0  0  0  0  0  0  0  0
  187.1320  178.1470  170.6530 C   0  0  0  0  0  0  0  0  0  0  0  0
  186.7220  177.0020  169.7710 C   0  0  0  0  0  0  0  0  0  0  0  0
  2  1  1  6
  2 11  1  0
  3  2  1  0
  3  4  1  1
  4  5  1  0
  5  6  1  0
  6  7  2  0
  8  7  1  0
  8 16  1  0
  9  8  2  0
 10  5  2  0
 10  9  1  0
 11 12  1  1
 11 10  1  0
 13 11  1  0
 14 13  1  0
 15 14  1  0
 15  3  1  0
 16 17  2  0
 18 16  1  0
 18 19  1  0
 20 19  1  0
 21 20  1  0
 21 26  2  0
 22 21  1  0
 23 22  2  0
 23 24  1  0
 24 25  2  0
 25 26  1  0
 27 24  1  0
 27 28  1  0
 29 28  2  0
 30 29  1  0
 31 32  1  0
 31 30  2  0
 32 27  2  0
 33 15  1  0
 34 33  1  0
 35 34  1  0
 36 35  1  0
 36 34  1  0
M  END
$$$$
