lig_105
     RDKit          3D

 34 38  0  0  1  0  0  0  0  0999 V2000
   -1.1380    5.0210   17.9980 C   0  0  0  0  0  0  0  0  0  0  0  0
   -2.3960    5.3730   17.5020 C   0  0  0  0  0  0  0  0  0  0  0  0
   -2.6140    6.6420   16.9540 C   0  0  0  0  0  0  0  0  0  0  0  0
   -3.9120    6.9540   16.4610 N   0  0  0  0  0  0  0  0  0  0  0  0
   -4.1330    8.1280   15.9290 C   0  0  0  0  0  0  0  0  0  0  0  0
   -5.3680    8.4670   15.4370 N   0  0  0  0  0  0  0  0  0  0  0  0
   -3.0990    9.0810   15.8700 N   0  0  0  0  0  0  0  0  0  0  0  0
   -3.2420   10.3390   15.3970 N   0  0  0  0  0  0  0  0  0  0  0  0
   -2.0010   10.8200   15.5810 C   0  0  0  0  0  0  0  0  0  0  0  0
   -1.1080    9.9400   16.1560 N   0  0  0  0  0  0  0  0  0  0  0  0
   -1.8360    8.8590   16.3330 C   0  0  0  0  0  0  0  0  0  0  0  0
   -1.5430    7.5660   16.9090 C   0  0  0  0  0  0  0  0  0  0  0  0
   -0.2870    7.2270   17.4010 C   0  0  0  0  0  0  0  0  0  0  0  0
   -0.0970    5.9590   17.9400 C   0  0  0  0  0  0  0  0  0  0  0  0
    1.1190    5.6440   18.4100 F   0  0  0  0  0  0  0  0  0  0  0  0
   -1.6100   12.2040   15.1790 C   0  0  2  0  0  0  0  0  0  0  0  0
   -0.4490   12.7320   16.0390 C   0  0  0  0  0  0  0  0  0  0  0  0
   -0.4620   14.2530   16.1830 C   0  0  0  0  0  0  0  0  0  0  0  0
   -1.0500   14.9480   14.9590 C   0  0  0  0  0  0  0  0  0  0  0  0
   -2.4260   14.5000   14.7150 N   0  0  0  0  0  0  0  0  0  0  0  0
   -2.8070   13.1660   15.2120 C   0  0  0  0  0  0  0  0  0  0  0  0
   -3.3180   15.2850   14.0490 C   0  0  0  0  0  0  0  0  0  0  0  0
   -3.7590   16.5940   14.3540 C   0  0  0  0  0  0  0  0  0  0  0  0
   -4.6530   17.0600   13.4750 N   0  0  0  0  0  0  0  0  0  0  0  0
   -4.7980   16.0370   12.6100 N   0  0  0  0  0  0  0  0  0  0  0  0
   -4.0030   14.9640   12.9010 C   0  0  0  0  0  0  0  0  0  0  0  0
   -5.6750   16.1770   11.4640 C   0  0  0  0  0  0  0  0  0  0  0  0
   -5.1110   15.6280   10.1480 C   0  0  0  0  0  0  0  0  0  0  0  0
   -5.8350   14.3940    9.5750 C   0  0  0  0  0  0  0  0  0  0  0  0
   -4.9480   13.7220    8.5180 C   0  0  0  0  0  0  0  0  0  0  0  0
   -7.1970   14.7100    8.9610 C   0  0  0  0  0  0  0  0  0  0  0  0
   -6.0510   13.4600   10.6370 O   0  0  0  0  0  0  0  0  0  0  0  0
   -1.8180    3.1520   19.3100 C   0  0  0  0  0  0  0  0  0  0  0  0
   -0.8120    3.8120   18.5530 O   0  0  0  0  0  0  0  0  0  0  0  0
  1 34  1  0
  2  1  2  0
  3  2  1  0
  4  3  1  0
  5  4  2  0
  6  5  1  0
  7  5  1  0
  7 11  1  0
  8  9  2  0
  8  7  1  0
  9 10  1  0
 10 11  2  0
 11 12  1  0
 12  3  2  0
 12 13  1  0
 13 14  2  0
 14  1  1  0
 14 15  1  0
 16 21  1  0
 16  9  1  1
 16 17  1  0
 17 18  1  0
 19 18  1  0
 20 19  1  0
 20 21  1  0
 22 23  1  0
 22 20  1  0
 24 23  2  0
 25 26  1  0
 25 24  1  0
 26 22  2  0
 27 25  1  0
 28 27  1  0
 29 28  1  0
 29 32  1  0
 30 29  1  0
 31 29  1  0
 34 33  1  0
M  END
$$$$
