lig_008
     RDKit          3D

 39 46  0  0  1  0  0  0  0  0999 V2000
    7.6390  -27.0070   65.0790 C   0  0  1  0  0  0  0  0  0  0  0  0
    7.1020  -28.3420   64.5470 C   0  0  0  0  0  0  0  0  0  0  0  0
    5.9980  -28.1530   63.4990 C   0  0  0  0  0  0  0  0  0  0  0  0
    6.5320  -27.3970   62.2730 C   0  0  1  0  0  0  0  0  0  0  0  0
    5.4240  -26.9990   61.2170 C   0  0  1  0  0  0  0  0  0  0  0  0
    4.3150  -26.0930   61.8500 C   0  0  0  0  0  0  0  0  0  0  0  0
    4.8830  -24.9960   62.7160 C   0  0  0  0  0  0  0  0  0  0  0  0
    4.1310  -23.9480   63.2580 C   0  0  0  0  0  0  0  0  0  0  0  0
    4.7230  -23.0320   64.1560 C   0  0  0  0  0  0  0  0  0  0  0  0
    6.0530  -23.1820   64.5480 C   0  0  0  0  0  0  0  0  0  0  0  0
    6.7770  -24.2220   64.0150 C   0  0  0  0  0  0  0  0  0  0  0  0
    6.2130  -25.0710   63.0870 C   0  0  0  0  0  0  0  0  0  0  0  0
    7.2240  -26.0800   62.6410 C   0  0  2  0  0  0  0  0  0  0  0  0
    7.9720  -25.5070   61.4060 C   0  0  0  0  0  0  0  0  0  0  0  0
    7.4090  -26.0000   60.0580 C   0  0  0  0  0  0  0  0  0  0  0  0
    5.9680  -26.2220   60.0680 N   0  0  0  0  0  0  0  0  0  0  0  0
    8.0740  -26.0230   63.9320 C   0  0  1  0  0  0  0  0  0  0  0  0
    8.0380  -24.6260   64.3970 O   0  0  0  0  0  0  0  0  0  0  0  0
    7.1660  -27.9060   67.7350 O   0  0  0  0  0  0  0  0  0  0  0  0
    6.5770  -26.9140   67.3260 C   0  0  0  0  0  0  0  0  0  0  0  0
    6.6700  -26.4490   66.0250 N   0  0  0  0  0  0  0  0  0  0  0  0
    5.6540  -26.0630   68.1770 C   0  0  0  0  0  0  0  0  0  0  0  0
    5.2790  -26.7410   69.4930 C   0  0  0  0  0  0  0  0  0  0  0  0
    3.8560  -27.3060   69.4860 C   0  0  0  0  0  0  0  0  0  0  0  0
    3.7610  -28.6870   68.9170 C   0  0  0  0  0  0  0  0  0  0  0  0
    3.9440  -29.8690   69.6060 C   0  0  0  0  0  0  0  0  0  0  0  0
    3.7810  -30.9080   68.7300 N   0  0  0  0  0  0  0  0  0  0  0  0
    3.4940  -30.4310   67.4730 C   0  0  0  0  0  0  0  0  0  0  0  0
    3.2570  -31.1220   66.2780 C   0  0  0  0  0  0  0  0  0  0  0  0
    2.9830  -30.3650   65.1360 C   0  0  0  0  0  0  0  0  0  0  0  0
    2.9480  -28.9730   65.1880 C   0  0  0  0  0  0  0  0  0  0  0  0
    3.1880  -28.3000   66.3900 C   0  0  0  0  0  0  0  0  0  0  0  0
    3.4670  -29.0390   67.5590 C   0  0  0  0  0  0  0  0  0  0  0  0
    7.4430  -28.3220   61.6420 O   0  0  0  0  0  0  0  0  0  0  0  0
    6.5860  -22.3570   65.4860 O   0  0  0  0  0  0  0  0  0  0  0  0
    5.4140  -26.6030   58.7690 C   0  0  0  0  0  0  0  0  0  0  0  0
    3.9600  -26.2710   58.6010 C   0  0  0  0  0  0  0  0  0  0  0  0
    3.2640  -26.6090   57.3050 C   0  0  0  0  0  0  0  0  0  0  0  0
    2.9130  -27.3590   58.5590 C   0  0  0  0  0  0  0  0  0  0  0  0
  1 21  1  6
  2  1  1  0
  3  2  1  0
  4 34  1  6
  4 13  1  0
  4  3  1  0
  5  6  1  1
  5  4  1  0
  6  7  1  0
  7 12  2  0
  7  8  1  0
  8  9  2  0
  9 10  1  0
 10 35  1  0
 11 18  1  0
 11 10  2  0
 12 11  1  0
 13 14  1  6
 13 12  1  0
 13 17  1  0
 15 16  1  0
 15 14  1  0
 16  5  1  0
 17 18  1  1
 17  1  1  0
 20 19  2  0
 20 22  1  0
 21 20  1  0
 22 23  1  0
 24 23  1  0
 25 24  1  0
 25 26  2  0
 27 26  1  0
 28 33  1  0
 28 27  1  0
 29 28  2  0
 30 31  2  0
 30 29  1  0
 31 32  1  0
 32 33  2  0
 33 25  1  0
 36 16  1  0
 37 36  1  0
 38 39  1  0
 38 37  1  0
 39 37  1  0
M  END
$$$$
