lig_002
     RDKit          3D

 22 24  0  0  1  0  0  0  0  0999 V2000
  178.7430  166.1740  137.0570 C   0  0  0  0  0  0  0  0  0  0  0  0
  179.4370  165.3170  137.8410 C   0  0  0  0  0  0  0  0  0  0  0  0
  180.0720  166.0020  139.0350 C   0  0  0  0  0  0  0  0  0  0  0  0
  179.6300  167.4140  138.8320 C   0  0  0  0  0  0  0  0  0  0  0  0
  179.9050  168.5200  139.6210 C   0  0  0  0  0  0  0  0  0  0  0  0
  179.3760  169.7510  139.2360 C   0  0  0  0  0  0  0  0  0  0  0  0
  178.5880  169.8560  138.0820 C   0  0  0  0  0  0  0  0  0  0  0  0
  178.3180  168.7310  137.2940 C   0  0  0  0  0  0  0  0  0  0  0  0
  178.8460  167.5060  137.6750 C   0  0  0  0  0  0  0  0  0  0  0  0
  176.8970  164.8640  135.9790 C   0  0  0  0  0  0  0  0  0  0  0  0
  177.9820  165.9320  135.7720 C   0  0  2  0  0  0  0  0  0  0  0  0
  178.8900  165.6600  134.5740 C   0  0  0  0  0  0  0  0  0  0  0  0
  179.5210  166.7250  133.9260 C   0  0  0  0  0  0  0  0  0  0  0  0
  180.3400  166.4670  132.8290 C   0  0  0  0  0  0  0  0  0  0  0  0
  180.5080  165.1580  132.3990 C   0  0  0  0  0  0  0  0  0  0  0  0
  179.8430  164.1580  133.0860 C   0  0  0  0  0  0  0  0  0  0  0  0
  179.0400  164.3790  134.1490 N   0  0  0  0  0  0  0  0  0  0  0  0
  179.6680  163.8430  137.6480 C   0  0  0  0  0  0  0  0  0  0  0  0
  180.2560  163.1720  138.9040 C   0  0  0  0  0  0  0  0  0  0  0  0
  180.7710  161.8100  138.6640 N   0  0  0  0  0  0  0  0  0  0  0  0
  182.2350  161.8260  138.6360 C   0  0  0  0  0  0  0  0  0  0  0  0
  180.2570  161.2360  137.4200 C   0  0  0  0  0  0  0  0  0  0  0  0
  1  9  2  0
  1  2  1  0
  2 18  1  0
  2  3  1  0
  4  3  2  0
  4  5  1  0
  6  5  2  0
  7  6  1  0
  8  9  1  0
  8  7  2  0
  9  4  1  0
 11 10  1  1
 11  1  1  0
 12 11  1  0
 13 12  2  0
 14 13  1  0
 15 14  2  0
 15 16  1  0
 16 17  2  0
 17 12  1  0
 18 19  1  0
 20 19  1  0
 21 20  1  0
 22 20  1  0
M  END
$$$$
