lig_031
     RDKit          3D

 30 34  0  0  1  0  0  0  0  0999 V2000
  177.0420  164.2230  133.8340 C   0  0  0  0  0  0  0  0  0  0  0  0
  177.9200  164.0430  132.6660 N   0  0  0  0  0  0  0  0  0  0  0  0
  179.1850  164.8020  132.8090 C   0  0  0  0  0  0  0  0  0  0  0  0
  180.3650  164.0300  133.4450 C   0  0  0  0  0  0  0  0  0  0  0  0
  180.6380  162.7630  132.7310 N   0  0  0  0  0  0  0  0  0  0  0  0
  179.5870  162.3270  131.7970 C   0  0  0  0  0  0  0  0  0  0  0  0
  178.1960  162.6040  132.4120 C   0  0  0  0  0  0  0  0  0  0  0  0
  181.9840  162.4850  132.4630 C   0  0  0  0  0  0  0  0  0  0  0  0
  182.7060  163.2220  131.4980 C   0  0  0  0  0  0  0  0  0  0  0  0
  184.0500  162.9870  131.2280 C   0  0  0  0  0  0  0  0  0  0  0  0
  184.7390  161.9900  131.9070 C   0  0  0  0  0  0  0  0  0  0  0  0
  184.0440  161.2180  132.8530 C   0  0  0  0  0  0  0  0  0  0  0  0
  184.7050  159.9280  133.7880 S   0  0  0  0  0  0  0  0  0  0  0  0
  183.2110  159.5990  134.5300 C   0  0  0  0  0  0  0  0  0  0  0  0
  182.2290  160.4550  134.0960 C   0  0  0  0  0  0  0  0  0  0  0  0
  182.6900  161.4340  133.1370 C   0  0  0  0  0  0  0  0  0  0  0  0
  176.9300  162.9920  134.7570 C   0  0  0  0  0  0  0  0  0  0  0  0
  176.9350  165.2190  136.8760 C   0  0  0  0  0  0  0  0  0  0  0  0
  177.8490  164.0200  136.9010 C   0  0  0  0  0  0  0  0  0  0  0  0
  178.6760  164.0160  137.9970 N   0  0  0  0  0  0  0  0  0  0  0  0
  179.5020  163.0320  138.1410 C   0  0  0  0  0  0  0  0  0  0  0  0
  179.6100  161.9910  137.2450 N   0  0  0  0  0  0  0  0  0  0  0  0
  178.8370  161.9540  136.1060 C   0  0  0  0  0  0  0  0  0  0  0  0
  178.9660  161.0950  135.2360 O   0  0  0  0  0  0  0  0  0  0  0  0
  177.8410  163.0540  135.9610 C   0  0  0  0  0  0  0  0  0  0  0  0
  180.5540  160.9190  137.5210 C   0  0  0  0  0  0  0  0  0  0  0  0
  181.9250  161.4770  137.8970 C   0  0  0  0  0  0  0  0  0  0  0  0
  181.8470  162.6360  138.8940 C   0  0  0  0  0  0  0  0  0  0  0  0
  180.4280  162.9540  139.3490 C   0  0  1  0  0  0  0  0  0  0  0  0
  180.4700  164.1110  140.0720 F   0  0  0  0  0  0  0  0  0  0  0  0
  1 17  1  0
  2  3  1  0
  2  1  1  0
  3  4  1  0
  5  4  1  0
  6  7  1  0
  6  5  1  0
  7  2  1  0
  8  5  1  0
  8 16  2  0
  9  8  1  0
 10  9  2  0
 10 11  1  0
 11 12  2  0
 12 16  1  0
 12 13  1  0
 13 14  1  0
 15 14  2  0
 16 15  1  0
 17 25  1  0
 18 19  1  0
 19 20  1  0
 20 21  2  0
 21 29  1  0
 22 26  1  0
 22 21  1  0
 23 22  1  0
 24 23  2  0
 25 23  1  0
 25 19  2  0
 26 27  1  0
 27 28  1  0
 28 29  1  0
 29 30  1  6
M  END
$$$$
