lig_159
     RDKit          3D

 31 35  0  0  1  0  0  0  0  0999 V2000
    1.4130  -18.9650   13.9540 C   0  0  0  0  0  0  0  0  0  0  0  0
    1.1480  -17.7320   13.2040 N   0  0  0  0  0  0  0  0  0  0  0  0
    2.3350  -17.0760   12.6730 C   0  0  0  0  0  0  0  0  0  0  0  0
    2.0070  -15.6250   12.3060 C   0  0  0  0  0  0  0  0  0  0  0  0
    0.6250  -15.4690   11.6400 C   0  0  0  0  0  0  0  0  0  0  0  0
    0.1100  -16.8130   11.1150 C   0  0  0  0  0  0  0  0  0  0  0  0
    0.0580  -17.8610   12.2330 C   0  0  0  0  0  0  0  0  0  0  0  0
    0.6140  -14.4060   10.5800 C   0  0  0  0  0  0  0  0  0  0  0  0
    1.4710  -14.4910    9.5510 N   0  0  0  0  0  0  0  0  0  0  0  0
    1.2300  -13.3840    8.7590 O   0  0  0  0  0  0  0  0  0  0  0  0
    0.2360  -12.6380    9.3080 C   0  0  0  0  0  0  0  0  0  0  0  0
   -0.2760  -11.4520    8.7920 C   0  0  0  0  0  0  0  0  0  0  0  0
   -1.2970  -10.8670    9.5360 C   0  0  0  0  0  0  0  0  0  0  0  0
   -1.8410   -9.7210    9.1010 F   0  0  0  0  0  0  0  0  0  0  0  0
   -1.7740  -11.4310   10.7190 C   0  0  0  0  0  0  0  0  0  0  0  0
   -1.2340  -12.6280   11.2080 C   0  0  0  0  0  0  0  0  0  0  0  0
   -0.1990  -13.2420   10.4760 C   0  0  0  0  0  0  0  0  0  0  0  0
    1.4010  -20.2620   13.1270 C   0  0  0  0  0  0  0  0  0  0  0  0
   -0.9050  -23.1190   15.6010 C   0  0  1  0  0  0  0  0  0  0  0  0
    0.1750  -23.6530   14.6530 C   0  0  0  0  0  0  0  0  0  0  0  0
    1.1600  -22.5580   14.2460 C   0  0  0  0  0  0  0  0  0  0  0  0
    0.4340  -21.3570   13.6210 C   0  0  1  0  0  0  0  0  0  0  0  0
   -0.6330  -20.8140   14.5830 C   0  0  0  0  0  0  0  0  0  0  0  0
   -1.6210  -21.9050   14.9940 C   0  0  0  0  0  0  0  0  0  0  0  0
   -2.8820  -23.0800   17.6780 O   0  0  0  0  0  0  0  0  0  0  0  0
   -2.8030  -24.0260   16.9060 C   0  0  0  0  0  0  0  0  0  0  0  0
   -1.8550  -24.1700   15.9220 N   0  0  0  0  0  0  0  0  0  0  0  0
   -3.7840  -25.1570   16.9470 C   0  0  0  0  0  0  0  0  0  0  0  0
   -3.8020  -26.0800   18.1380 C   0  0  0  0  0  0  0  0  0  0  0  0
   -4.9570  -25.1530   17.8890 C   0  0  0  0  0  0  0  0  0  0  0  0
   -4.0140  -25.8050   15.6750 O   0  0  0  0  0  0  0  0  0  0  0  0
  2  1  1  0
  3  2  1  0
  4  3  1  0
  5  8  1  0
  5  4  1  0
  6  5  1  0
  6  7  1  0
  7  2  1  0
  9  8  2  0
 10 11  1  0
 10  9  1  0
 11 17  2  0
 12 11  1  0
 12 13  2  0
 13 15  1  0
 14 13  1  0
 15 16  2  0
 17  8  1  0
 17 16  1  0
 18  1  1  0
 19 27  1  6
 20 19  1  0
 21 20  1  0
 22 18  1  1
 22 21  1  0
 22 23  1  0
 23 24  1  0
 24 19  1  0
 26 28  1  0
 26 25  2  0
 27 26  1  0
 28 30  1  0
 28 29  1  0
 30 29  1  0
 31 28  1  0
M  END
$$$$
