lig_217
     RDKit          3D

 20 22  0  0  1  0  0  0  0  0999 V2000
    0.4190  -15.3000   10.9580 C   0  0  2  0  0  0  0  0  0  0  0  0
    1.7980  -14.9770   10.3600 C   0  0  0  0  0  0  0  0  0  0  0  0
    1.6480  -14.1440    9.0860 C   0  0  0  0  0  0  0  0  0  0  0  0
    0.6770  -12.9920    9.2140 C   0  0  0  0  0  0  0  0  0  0  0  0
    0.6870  -11.9930    8.2250 C   0  0  0  0  0  0  0  0  0  0  0  0
   -0.2090  -10.9170    8.2570 C   0  0  0  0  0  0  0  0  0  0  0  0
   -1.1380  -10.8480    9.3070 C   0  0  0  0  0  0  0  0  0  0  0  0
   -2.1710   -9.9510    9.6860 C   0  0  0  0  0  0  0  0  0  0  0  0
   -2.7230  -10.4580   10.8380 C   0  0  0  0  0  0  0  0  0  0  0  0
   -2.1010  -11.6090   11.1990 O   0  0  0  0  0  0  0  0  0  0  0  0
   -1.1350  -11.8540   10.2650 C   0  0  0  0  0  0  0  0  0  0  0  0
   -0.2650  -12.9520   10.2680 C   0  0  0  0  0  0  0  0  0  0  0  0
   -0.2880  -13.9880   11.3610 C   0  0  0  0  0  0  0  0  0  0  0  0
    0.5220  -16.3660   11.9960 N   0  0  0  0  0  0  0  0  0  0  0  0
   -0.6070  -17.3160   11.8900 C   0  0  0  0  0  0  0  0  0  0  0  0
   -0.6220  -18.5300    9.6770 C   0  0  0  0  0  0  0  0  0  0  0  0
   -0.2080  -18.5960   11.1410 C   0  0  0  0  0  0  0  0  0  0  0  0
    0.6460  -15.9050   13.3920 C   0  0  0  0  0  0  0  0  0  0  0  0
    1.9080  -16.3470   14.1430 C   0  0  0  0  0  0  0  0  0  0  0  0
    2.7720  -17.3130   13.3440 C   0  0  0  0  0  0  0  0  0  0  0  0
  1 13  1  0
  1 14  1  1
  2  1  1  0
  3  4  1  0
  3  2  1  0
  4 12  1  0
  5  6  1  0
  5  4  2  0
  6  7  2  0
  7  8  1  0
  7 11  1  0
  8  9  2  0
  9 10  1  0
 11 12  2  0
 11 10  1  0
 12 13  1  0
 14 18  1  0
 15 14  1  0
 16 17  1  0
 17 15  1  0
 18 19  1  0
 20 19  1  0
M  END
$$$$
