lig_009
     RDKit          3D

 23 25  0  0  1  0  0  0  0  0999 V2000
  126.1210  142.6940  102.1520 N   0  0  0  0  0  0  0  0  0  0  0  0
  127.0400  141.7070  102.7310 C   0  0  0  0  0  0  0  0  0  0  0  0
  126.8600  140.3160  102.1100 C   0  0  0  0  0  0  0  0  0  0  0  0
  126.6250  139.1760  103.1020 C   0  0  0  0  0  0  0  0  0  0  0  0
  126.5050  139.6960  104.4630 N   0  0  0  0  0  0  0  0  0  0  0  0
  126.3730  135.8490  108.8330 Cl  0  0  0  0  0  0  0  0  0  0  0  0
  126.4410  136.9060  107.4890 C   0  0  0  0  0  0  0  0  0  0  0  0
  126.7820  136.4580  106.2320 C   0  0  0  0  0  0  0  0  0  0  0  0
  126.8130  137.3890  105.1960 C   0  0  0  0  0  0  0  0  0  0  0  0
  126.5110  138.7180  105.4620 C   0  0  0  0  0  0  0  0  0  0  0  0
  126.1690  139.1000  106.7100 N   0  0  0  0  0  0  0  0  0  0  0  0
  126.1400  138.1920  107.7420 N   0  0  0  0  0  0  0  0  0  0  0  0
  125.2680  142.1120  101.0940 C   0  0  0  0  0  0  0  0  0  0  0  0
  123.7380  142.2760  101.3000 C   0  0  1  0  0  0  0  0  0  0  0  0
  122.9100  141.3530  100.4000 C   0  0  0  0  0  0  0  0  0  0  0  0
  123.1430  139.8950  100.7640 C   0  0  0  0  0  0  0  0  0  0  0  0
  123.0930  139.7150  102.2530 C   0  0  0  0  0  0  0  0  0  0  0  0
  122.9480  138.4320  102.7990 C   0  0  0  0  0  0  0  0  0  0  0  0
  122.9010  138.2550  104.1820 C   0  0  0  0  0  0  0  0  0  0  0  0
  123.0020  139.3560  105.0300 C   0  0  0  0  0  0  0  0  0  0  0  0
  123.1580  140.6330  104.4930 C   0  0  0  0  0  0  0  0  0  0  0  0
  123.2160  140.8110  103.1120 C   0  0  0  0  0  0  0  0  0  0  0  0
  123.3760  142.1010  102.6820 O   0  0  0  0  0  0  0  0  0  0  0  0
  1  2  1  0
  3  2  1  0
  3  4  1  0
  4  5  1  0
  5 10  1  0
  7 12  2  0
  7  6  1  0
  8  7  1  0
  9 10  1  0
  9  8  2  0
 10 11  2  0
 11 12  1  0
 13  1  1  0
 14 13  1  1
 14 23  1  0
 15 16  1  0
 15 14  1  0
 16 17  1  0
 17 18  2  0
 17 22  1  0
 18 19  1  0
 19 20  2  0
 21 20  1  0
 22 21  2  0
 23 22  1  0
M  END
$$$$
