lig_012
     RDKit          3D

 32 36  0  0  0  0  0  0  0  0999 V2000
    8.8020    5.4920  -11.1070 C   0  0  0  0  0  0  0  0  0  0  0  0
    9.3010    6.3050   -9.9890 N   0  0  0  0  0  0  0  0  0  0  0  0
   10.4180    7.1770  -10.3380 C   0  0  0  0  0  0  0  0  0  0  0  0
   10.5730    8.2730   -9.2780 C   0  0  0  0  0  0  0  0  0  0  0  0
   10.2620    7.7740   -7.8530 C   0  0  0  0  0  0  0  0  0  0  0  0
   10.4480    6.2550   -7.7600 C   0  0  0  0  0  0  0  0  0  0  0  0
    9.5470    5.5290   -8.7680 C   0  0  0  0  0  0  0  0  0  0  0  0
   11.0450    8.5230   -6.8160 C   0  0  0  0  0  0  0  0  0  0  0  0
   11.5090    9.7570   -7.0650 N   0  0  0  0  0  0  0  0  0  0  0  0
   12.1710   10.1520   -5.9150 O   0  0  0  0  0  0  0  0  0  0  0  0
   12.0990    9.1650   -4.9850 C   0  0  0  0  0  0  0  0  0  0  0  0
   12.6440    9.2020   -3.7060 C   0  0  0  0  0  0  0  0  0  0  0  0
   12.4340    8.0650   -2.9310 C   0  0  0  0  0  0  0  0  0  0  0  0
   12.9300    8.0280   -1.6860 F   0  0  0  0  0  0  0  0  0  0  0  0
   11.7240    6.9610   -3.4060 C   0  0  0  0  0  0  0  0  0  0  0  0
   11.1880    6.9590   -4.7010 C   0  0  0  0  0  0  0  0  0  0  0  0
   11.3870    8.0970   -5.5050 C   0  0  0  0  0  0  0  0  0  0  0  0
    9.7990    5.2250  -12.2460 C   0  0  0  0  0  0  0  0  0  0  0  0
    9.3200    4.0920  -13.1580 C   0  0  0  0  0  0  0  0  0  0  0  0
    8.0070    4.3270  -13.6630 O   0  0  0  0  0  0  0  0  0  0  0  0
    5.4060   -1.9560  -16.5550 C   0  0  0  0  0  0  0  0  0  0  0  0
    5.3570   -0.9000  -15.5610 N   0  0  0  0  0  0  0  0  0  0  0  0
    4.0460   -0.4960  -15.0730 C   0  0  0  0  0  0  0  0  0  0  0  0
    4.1340    0.1760  -13.7080 C   0  0  0  0  0  0  0  0  0  0  0  0
    5.1570    1.2760  -13.7380 C   0  0  0  0  0  0  0  0  0  0  0  0
    5.0510    2.3770  -12.8830 C   0  0  0  0  0  0  0  0  0  0  0  0
    6.0310    3.3700  -12.9020 C   0  0  0  0  0  0  0  0  0  0  0  0
    7.1340    3.2790  -13.7560 C   0  0  0  0  0  0  0  0  0  0  0  0
    7.2510    2.1760  -14.5980 C   0  0  0  0  0  0  0  0  0  0  0  0
    6.2670    1.1750  -14.5910 C   0  0  0  0  0  0  0  0  0  0  0  0
    6.4260   -0.0030  -15.4950 C   0  0  0  0  0  0  0  0  0  0  0  0
    7.4660   -0.1420  -16.1350 O   0  0  0  0  0  0  0  0  0  0  0  0
  1  2  1  0
  2  7  1  0
  3  2  1  0
  3  4  1  0
  4  5  1  0
  5  6  1  0
  5  8  1  0
  7  6  1  0
  8 17  1  0
  9  8  2  0
  9 10  1  0
 10 11  1  0
 11 12  1  0
 12 13  2  0
 13 14  1  0
 15 13  1  0
 16 15  2  0
 17 11  2  0
 17 16  1  0
 18  1  1  0
 19 18  1  0
 20 19  1  0
 21 22  1  0
 22 31  1  0
 22 23  1  0
 23 24  1  0
 25 24  1  0
 25 26  1  0
 27 26  2  0
 28 20  1  0
 28 27  1  0
 29 30  1  0
 29 28  2  0
 30 25  2  0
 31 30  1  0
 32 31  2  0
M  END
$$$$
