lig_185
     RDKit          3D

 36 40  0  0  1  0  0  0  0  0999 V2000
   -1.9380    7.5400   16.1820 N   0  0  0  0  0  0  0  0  0  0  0  0
   -2.4410    8.8140   16.0030 C   0  0  0  0  0  0  0  0  0  0  0  0
   -1.5230    9.7310   15.6980 N   0  0  0  0  0  0  0  0  0  0  0  0
   -1.9080   11.0160   15.4760 C   0  0  0  0  0  0  0  0  0  0  0  0
   -3.2500   11.3550   15.5860 C   0  0  0  0  0  0  0  0  0  0  0  0
   -4.0910   12.8470   15.4120 S   0  0  0  0  0  0  0  0  0  0  0  0
   -5.6020   12.1320   15.7550 C   0  0  0  0  0  0  0  0  0  0  0  0
   -5.4830   10.7860   16.0120 C   0  0  0  0  0  0  0  0  0  0  0  0
   -4.1340   10.3340   15.9220 C   0  0  0  0  0  0  0  0  0  0  0  0
   -3.7360    9.0630   16.1390 N   0  0  0  0  0  0  0  0  0  0  0  0
   -0.8410   12.0000   15.1330 C   0  0  0  0  0  0  0  0  0  0  0  0
   -0.4360   12.1310   13.9800 O   0  0  0  0  0  0  0  0  0  0  0  0
   -0.3390   12.7700   16.1770 N   0  0  0  0  0  0  0  0  0  0  0  0
   -1.1810   13.5410   17.1130 C   0  0  0  0  0  0  0  0  0  0  0  0
   -0.6490   14.8010   16.3880 C   0  0  0  0  0  0  0  0  0  0  0  0
    0.5540   13.9260   15.9800 C   0  0  0  0  0  0  0  0  0  0  0  0
   -1.4830   15.2420   15.2300 N   0  0  0  0  0  0  0  0  0  0  0  0
   -1.9680   16.5260   15.1420 C   0  0  0  0  0  0  0  0  0  0  0  0
   -1.6660   17.4040   15.9470 O   0  0  0  0  0  0  0  0  0  0  0  0
   -2.9380   16.7910   13.9980 C   0  0  0  0  0  0  0  0  0  0  0  0
   -3.2860   15.5060   13.2340 C   0  0  0  0  0  0  0  0  0  0  0  0
   -4.2510   15.7910   12.0840 C   0  0  0  0  0  0  0  0  0  0  0  0
   -5.4930   16.5220   12.5680 C   0  0  0  0  0  0  0  0  0  0  0  0
   -6.2830   16.8250   11.5100 F   0  0  0  0  0  0  0  0  0  0  0  0
   -6.2120   15.6890   13.3650 F   0  0  0  0  0  0  0  0  0  0  0  0
   -5.1680   17.7880   13.3420 C   0  0  0  0  0  0  0  0  0  0  0  0
   -4.2020   17.5090   14.4920 C   0  0  0  0  0  0  0  0  0  0  0  0
   -3.8210    5.9710   16.5260 C   0  0  0  0  0  0  0  0  0  0  0  0
   -2.5690    6.6240   17.1250 C   0  0  1  0  0  0  0  0  0  0  0  0
   -1.5630    5.6990   17.7790 C   0  0  0  0  0  0  0  0  0  0  0  0
   -0.2510    6.1430   17.9790 C   0  0  0  0  0  0  0  0  0  0  0  0
    0.7300    5.4190   18.5700 N   0  0  0  0  0  0  0  0  0  0  0  0
    0.3970    4.1690   18.9660 C   0  0  0  0  0  0  0  0  0  0  0  0
   -0.8650    3.6320   18.8030 C   0  0  0  0  0  0  0  0  0  0  0  0
   -1.1340    2.3850   19.2120 F   0  0  0  0  0  0  0  0  0  0  0  0
   -1.8590    4.4000   18.2090 C   0  0  0  0  0  0  0  0  0  0  0  0
  1 29  1  0
  2 10  1  0
  2  1  1  0
  3  2  2  0
  4  5  2  0
  4  3  1  0
  5  9  1  0
  6  5  1  0
  6  7  1  0
  7  8  2  0
  9  8  1  0
  9 10  2  0
 11  4  1  0
 11 13  1  0
 12 11  2  0
 13 14  1  0
 15 17  1  0
 15 14  1  0
 16 13  1  0
 16 15  1  0
 18 17  1  0
 18 19  2  0
 20 27  1  0
 20 18  1  0
 21 20  1  0
 22 23  1  0
 22 21  1  0
 23 26  1  0
 23 25  1  0
 24 23  1  0
 26 27  1  0
 29 28  1  6
 29 30  1  0
 30 31  2  0
 30 36  1  0
 31 32  1  0
 32 33  2  0
 34 33  1  0
 34 35  1  0
 36 34  2  0
M  END
$$$$
