lig_032
     RDKit          3D

 28 30  0  0  1  0  0  0  0  0999 V2000
  123.0490  140.9120  108.4590 C   0  0  0  0  0  0  0  0  0  0  0  0
  123.9360  140.3320  107.4380 N   0  0  0  0  0  0  0  0  0  0  0  0
  124.9080  141.3320  106.9340 C   0  0  0  0  0  0  0  0  0  0  0  0
  124.5280  142.0140  105.6000 C   0  0  0  0  0  0  0  0  0  0  0  0
  124.2790  141.0330  104.5220 N   0  0  0  0  0  0  0  0  0  0  0  0
  123.9570  139.6640  104.9910 C   0  0  0  0  0  0  0  0  0  0  0  0
  123.1720  139.7250  106.3200 C   0  0  0  0  0  0  0  0  0  0  0  0
  125.1570  141.0280  103.4210 C   0  0  0  0  0  0  0  0  0  0  0  0
  126.3740  140.3250  103.4710 C   0  0  0  0  0  0  0  0  0  0  0  0
  127.2420  140.2930  102.3780 C   0  0  0  0  0  0  0  0  0  0  0  0
  126.9060  140.9600  101.2040 C   0  0  0  0  0  0  0  0  0  0  0  0
  125.7000  141.6600  101.1200 C   0  0  0  0  0  0  0  0  0  0  0  0
  125.3580  142.4590   99.6220 Cl  0  0  0  0  0  0  0  0  0  0  0  0
  124.8230  141.6970  102.2160 C   0  0  0  0  0  0  0  0  0  0  0  0
  123.3320  142.5910  102.1150 Cl  0  0  0  0  0  0  0  0  0  0  0  0
  123.8250  141.5580  109.6190 C   0  0  0  0  0  0  0  0  0  0  0  0
  124.0050  139.3420  113.2340 C   0  0  1  0  0  0  0  0  0  0  0  0
  122.6250  139.3390  112.5510 C   0  0  0  0  0  0  0  0  0  0  0  0
  122.7090  139.8070  111.1030 C   0  0  0  0  0  0  0  0  0  0  0  0
  123.2060  141.2630  111.0020 C   0  0  1  0  0  0  0  0  0  0  0  0
  124.1950  141.6190  112.1330 C   0  0  0  0  0  0  0  0  0  0  0  0
  124.9530  140.3970  112.6410 C   0  0  0  0  0  0  0  0  0  0  0  0
  123.9720  140.2410  117.4000 C   0  0  0  0  0  0  0  0  0  0  0  0
  124.0120  138.8760  116.8940 N   0  0  0  0  0  0  0  0  0  0  0  0
  124.3620  137.8600  117.8730 C   0  0  0  0  0  0  0  0  0  0  0  0
  124.2330  138.5580  115.5600 C   0  0  0  0  0  0  0  0  0  0  0  0
  124.7110  137.4890  115.1930 O   0  0  0  0  0  0  0  0  0  0  0  0
  123.8670  139.5410  114.6730 N   0  0  0  0  0  0  0  0  0  0  0  0
  1 16  1  0
  2  1  1  0
  3  2  1  0
  4  3  1  0
  5  6  1  0
  5  4  1  0
  6  7  1  0
  7  2  1  0
  8  9  2  0
  8  5  1  0
 10  9  1  0
 11 10  2  0
 12 11  1  0
 12 14  2  0
 13 12  1  0
 14  8  1  0
 15 14  1  0
 17 28  1  1
 18 17  1  0
 19 18  1  0
 20 16  1  6
 20 19  1  0
 20 21  1  0
 21 22  1  0
 22 17  1  0
 24 23  1  0
 24 25  1  0
 26 24  1  0
 27 26  2  0
 28 26  1  0
M  END
$$$$
