lig_026
     RDKit          3D

 34 37  0  0  0  0  0  0  0  0999 V2000
   21.2640   17.1580   11.8840 N   0  0  0  0  0  0  0  0  0  0  0  0
   19.8300   17.4810   12.0310 C   0  0  0  0  0  0  0  0  0  0  0  0
   19.5090   18.4010   13.2220 C   0  0  0  0  0  0  0  0  0  0  0  0
   17.7500   22.1260   11.8980 C   0  0  0  0  0  0  0  0  0  0  0  0
   18.7930   21.5370   11.1750 C   0  0  0  0  0  0  0  0  0  0  0  0
   19.3640   20.3370   11.6070 C   0  0  0  0  0  0  0  0  0  0  0  0
   18.9040   19.7100   12.7680 C   0  0  0  0  0  0  0  0  0  0  0  0
   17.8550   20.2960   13.4910 C   0  0  0  0  0  0  0  0  0  0  0  0
   17.2750   21.4990   13.0670 C   0  0  0  0  0  0  0  0  0  0  0  0
   17.3380   23.7880   10.2320 C   0  0  0  0  0  0  0  0  0  0  0  0
   17.1300   23.3000   11.5480 O   0  0  0  0  0  0  0  0  0  0  0  0
   16.2470   22.1360   13.7190 O   0  0  0  0  0  0  0  0  0  0  0  0
   16.5660   22.8810   14.8840 C   0  0  0  0  0  0  0  0  0  0  0  0
   22.0900   17.5500   13.0400 C   0  0  0  0  0  0  0  0  0  0  0  0
   23.0520   18.7290   12.8190 C   0  0  0  0  0  0  0  0  0  0  0  0
   23.1580   19.6370   14.0510 C   0  0  0  0  0  0  0  0  0  0  0  0
   22.3880   20.9270   13.9080 C   0  0  0  0  0  0  0  0  0  0  0  0
   22.6090   21.7770   12.8140 C   0  0  0  0  0  0  0  0  0  0  0  0
   21.8770   22.9580   12.6700 C   0  0  0  0  0  0  0  0  0  0  0  0
   20.9160   23.3030   13.6190 C   0  0  0  0  0  0  0  0  0  0  0  0
   20.7000   22.4670   14.7060 C   0  0  0  0  0  0  0  0  0  0  0  0
   19.7740   22.7930   15.6180 F   0  0  0  0  0  0  0  0  0  0  0  0
   21.4260   21.2900   14.8610 C   0  0  0  0  0  0  0  0  0  0  0  0
   21.7640   17.6870   10.5940 C   0  0  0  0  0  0  0  0  0  0  0  0
   21.0810   17.0970    9.3470 C   0  0  0  0  0  0  0  0  0  0  0  0
   22.0130   16.1960    8.5700 C   0  0  0  0  0  0  0  0  0  0  0  0
   22.0760   16.2860    7.1610 C   0  0  0  0  0  0  0  0  0  0  0  0
   22.9210   15.4510    6.4230 C   0  0  0  0  0  0  0  0  0  0  0  0
   23.6850   14.5390    7.1170 C   0  0  0  0  0  0  0  0  0  0  0  0
   23.6300   14.4420    8.4870 C   0  0  0  0  0  0  0  0  0  0  0  0
   22.8070   15.2510    9.2420 C   0  0  0  0  0  0  0  0  0  0  0  0
   24.4590   13.4800    8.9740 O   0  0  0  0  0  0  0  0  0  0  0  0
   25.0460   12.9860    7.7520 C   0  0  0  0  0  0  0  0  0  0  0  0
   24.5570   13.6510    6.5690 O   0  0  0  0  0  0  0  0  0  0  0  0
  1  2  1  0
  1 14  1  0
  2  3  1  0
  4  9  2  0
  5  6  2  0
  5  4  1  0
  6  7  1  0
  7  3  1  0
  7  8  2  0
  9  8  1  0
  9 12  1  0
 10 11  1  0
 11  4  1  0
 12 13  1  0
 15 14  1  0
 15 16  1  0
 17 16  1  0
 17 23  1  0
 18 17  2  0
 19 18  1  0
 19 20  2  0
 20 21  1  0
 21 23  2  0
 21 22  1  0
 24  1  1  0
 25 24  1  0
 26 31  2  0
 26 25  1  0
 27 26  1  0
 28 29  1  0
 28 27  2  0
 29 30  2  0
 30 32  1  0
 30 31  1  0
 33 32  1  0
 34 29  1  0
 34 33  1  0
M  END
$$$$
