lig_365
     RDKit          3D

 21 23  0  0  1  0  0  0  0  0999 V2000
   -1.2660  -20.6050   15.1990 C   0  0  1  0  0  0  0  0  0  0  0  0
   -2.8470  -20.6760   20.7210 C   0  0  0  0  0  0  0  0  0  0  0  0
   -2.8070  -20.6690   19.2610 N   0  0  0  0  0  0  0  0  0  0  0  0
   -2.1520  -19.4470   18.7610 C   0  0  0  0  0  0  0  0  0  0  0  0
   -2.0380  -19.4380   17.2200 C   0  0  0  0  0  0  0  0  0  0  0  0
   -1.2910  -20.6110   16.6940 N   0  0  0  0  0  0  0  0  0  0  0  0
   -1.9640  -21.8330   17.2100 C   0  0  0  0  0  0  0  0  0  0  0  0
   -2.0790  -21.8440   18.7520 C   0  0  0  0  0  0  0  0  0  0  0  0
   -0.1540  -19.7210   14.6110 C   0  0  0  0  0  0  0  0  0  0  0  0
    0.9550  -19.3220   15.3800 C   0  0  0  0  0  0  0  0  0  0  0  0
    1.9660  -18.5350   14.8220 C   0  0  0  0  0  0  0  0  0  0  0  0
    1.8800  -18.1440   13.4880 C   0  0  0  0  0  0  0  0  0  0  0  0
    3.1230  -17.1740   12.7990 Cl  0  0  0  0  0  0  0  0  0  0  0  0
    0.7940  -18.5330   12.7070 C   0  0  0  0  0  0  0  0  0  0  0  0
   -0.2170  -19.3210   13.2650 C   0  0  0  0  0  0  0  0  0  0  0  0
   -1.1760  -22.0050   14.5780 C   0  0  0  0  0  0  0  0  0  0  0  0
   -2.2230  -22.4830   13.7710 C   0  0  0  0  0  0  0  0  0  0  0  0
   -2.1520  -23.7460   13.1820 C   0  0  0  0  0  0  0  0  0  0  0  0
   -1.0320  -24.5500   13.3850 C   0  0  0  0  0  0  0  0  0  0  0  0
    0.0190  -24.0920   14.1770 C   0  0  0  0  0  0  0  0  0  0  0  0
   -0.0510  -22.8280   14.7680 C   0  0  0  0  0  0  0  0  0  0  0  0
  1 16  1  0
  1  6  1  1
  3  2  1  0
  4  3  1  0
  5  4  1  0
  6  7  1  0
  6  5  1  0
  7  8  1  0
  8  3  1  0
  9  1  1  0
  9 10  1  0
 11 10  2  0
 12 11  1  0
 13 12  1  0
 14 15  1  0
 14 12  2  0
 15  9  2  0
 16 21  1  0
 17 16  2  0
 18 19  2  0
 18 17  1  0
 19 20  1  0
 20 21  2  0
M  END
$$$$
