lig_014
     RDKit          3D

 27 29  0  0  0  0  0  0  0  0999 V2000
   13.0490    0.5150   57.2140 N   0  0  0  0  0  0  0  0  0  0  0  0
   13.8530    0.5800   58.4490 C   0  0  0  0  0  0  0  0  0  0  0  0
   15.1510    1.3620   58.2490 C   0  0  0  0  0  0  0  0  0  0  0  0
   16.0600    0.6790   57.2100 C   0  0  0  0  0  0  0  0  0  0  0  0
   15.2500   -0.1710   56.2180 C   0  0  0  0  0  0  0  0  0  0  0  0
   13.8650    0.4290   55.9920 C   0  0  0  0  0  0  0  0  0  0  0  0
   17.1630   -0.1250   57.8380 C   0  0  0  0  0  0  0  0  0  0  0  0
   16.9820   -0.7250   59.0250 N   0  0  0  0  0  0  0  0  0  0  0  0
   18.1710   -1.3750   59.3070 O   0  0  0  0  0  0  0  0  0  0  0  0
   19.0540   -1.1690   58.2960 C   0  0  0  0  0  0  0  0  0  0  0  0
   20.3510   -1.6680   58.2270 C   0  0  0  0  0  0  0  0  0  0  0  0
   21.0660   -1.3220   57.0830 C   0  0  0  0  0  0  0  0  0  0  0  0
   22.3230   -1.7660   56.9460 F   0  0  0  0  0  0  0  0  0  0  0  0
   20.5200   -0.5270   56.0760 C   0  0  0  0  0  0  0  0  0  0  0  0
   19.2090   -0.0420   56.1800 C   0  0  0  0  0  0  0  0  0  0  0  0
   18.4650   -0.3760   57.3260 C   0  0  0  0  0  0  0  0  0  0  0  0
   12.0560   -0.5830   57.2760 C   0  0  0  0  0  0  0  0  0  0  0  0
   10.6390   -0.1520   57.7270 C   0  0  0  0  0  0  0  0  0  0  0  0
   10.5760    0.2510   59.1440 N   0  0  0  0  0  0  0  0  0  0  0  0
   10.4260    1.6050   59.4030 C   0  0  0  0  0  0  0  0  0  0  0  0
   10.3010    2.4130   58.4660 O   0  0  0  0  0  0  0  0  0  0  0  0
   10.4420    2.2030   60.8420 C   0  0  0  0  0  0  0  0  0  0  0  0
   10.7860    3.6870   60.9060 C   0  0  0  0  0  0  0  0  0  0  0  0
    9.1810    1.8440   61.6230 C   0  0  0  0  0  0  0  0  0  0  0  0
   11.5260    1.5450   61.5490 O   0  0  0  0  0  0  0  0  0  0  0  0
    9.4590   -1.6350   60.2930 C   0  0  0  0  0  0  0  0  0  0  0  0
   10.7330   -0.8190   60.1270 C   0  0  0  0  0  0  0  0  0  0  0  0
  1 17  1  0
  1  2  1  0
  3  2  1  0
  4  7  1  0
  4  3  1  0
  5  4  1  0
  6  5  1  0
  6  1  1  0
  7  8  2  0
  8  9  1  0
 10  9  1  0
 11 10  1  0
 12 11  2  0
 13 12  1  0
 14 15  2  0
 14 12  1  0
 15 16  1  0
 16  7  1  0
 16 10  2  0
 17 18  1  0
 18 19  1  0
 19 20  1  0
 19 27  1  0
 20 22  1  0
 21 20  2  0
 22 23  1  0
 22 25  1  0
 22 24  1  0
 27 26  1  0
M  END
$$$$
