lig_219
     RDKit          3D

 19 21  0  0  0  0  0  0  0  0999 V2000
   -2.8580    6.6350   16.9550 N   0  0  0  0  0  0  0  0  0  0  0  0
   -1.5600    6.5640   17.3710 C   0  0  0  0  0  0  0  0  0  0  0  0
   -0.8160    5.5450   17.9990 C   0  0  0  0  0  0  0  0  0  0  0  0
    0.4620    6.0400   18.1850 C   0  0  0  0  0  0  0  0  0  0  0  0
    0.5080    7.3220   17.6900 N   0  0  0  0  0  0  0  0  0  0  0  0
   -0.7240    7.6430   17.1970 C   0  0  0  0  0  0  0  0  0  0  0  0
   -1.1690    8.8650   16.5880 C   0  0  0  0  0  0  0  0  0  0  0  0
   -0.4650    9.8540   16.4060 O   0  0  0  0  0  0  0  0  0  0  0  0
   -2.5180    8.8840   16.1860 N   0  0  0  0  0  0  0  0  0  0  0  0
   -3.2750    9.8720   15.5800 C   0  0  0  0  0  0  0  0  0  0  0  0
   -2.7580   11.2080   15.2090 C   0  0  0  0  0  0  0  0  0  0  0  0
   -4.5270    9.3120   15.4340 C   0  0  0  0  0  0  0  0  0  0  0  0
   -4.5670    8.0330   15.9230 N   0  0  0  0  0  0  0  0  0  0  0  0
   -3.3560    7.7810   16.3720 C   0  0  0  0  0  0  0  0  0  0  0  0
   -3.7760    5.5040   17.1230 C   0  0  0  0  0  0  0  0  0  0  0  0
   -3.6440    4.4670   15.9980 C   0  0  0  0  0  0  0  0  0  0  0  0
   -4.1440    3.0740   16.3930 C   0  0  0  0  0  0  0  0  0  0  0  0
   -2.2810    2.1600   17.8820 C   0  0  0  0  0  0  0  0  0  0  0  0
   -3.0180    2.0500   16.5560 C   0  0  0  0  0  0  0  0  0  0  0  0
  1 15  1  0
  1  2  1  0
  2  3  1  0
  3  4  2  0
  5  4  1  0
  6  2  2  0
  6  5  1  0
  7  6  1  0
  8  7  2  0
  9 14  1  0
  9  7  1  0
 10  9  1  0
 11 10  1  0
 12 10  2  0
 12 13  1  0
 13 14  2  0
 14  1  1  0
 16 17  1  0
 16 15  1  0
 17 19  1  0
 19 18  1  0
M  END
$$$$
