lig_013
     RDKit          3D

 28 29  0  0  1  0  0  0  0  0999 V2000
    3.1280  -25.5690   58.0630 C   0  0  2  0  0  0  0  0  0  0  0  0
    4.2090  -26.6030   58.4850 C   0  0  0  0  0  0  0  0  0  0  0  0
    5.1730  -26.0800   59.4630 N   0  0  0  0  0  0  0  0  0  0  0  0
    6.4950  -26.5040   59.4050 C   0  0  0  0  0  0  0  0  0  0  0  0
    6.8820  -27.3300   58.5730 O   0  0  0  0  0  0  0  0  0  0  0  0
    4.6460  -25.2040   60.5110 C   0  0  0  0  0  0  0  0  0  0  0  0
    3.1130  -25.1700   60.5370 C   0  0  0  0  0  0  0  0  0  0  0  0
    2.5850  -24.8000   59.2200 N   0  0  0  0  0  0  0  0  0  0  0  0
    1.8460  -23.6460   58.9560 C   0  0  0  0  0  0  0  0  0  0  0  0
    1.6440  -23.2710   57.8010 O   0  0  0  0  0  0  0  0  0  0  0  0
    1.9800  -26.2910   57.2910 C   0  0  0  0  0  0  0  0  0  0  0  0
    1.5030  -25.6190   56.0620 N   0  0  0  0  0  0  0  0  0  0  0  0
    1.8300  -26.6570   53.8180 C   0  0  0  0  0  0  0  0  0  0  0  0
    2.4340  -25.8140   54.9370 C   0  0  0  0  0  0  0  0  0  0  0  0
    0.1290  -26.0050   55.6870 C   0  0  0  0  0  0  0  0  0  0  0  0
   -0.9780  -25.0050   56.0100 C   0  0  0  0  0  0  0  0  0  0  0  0
    7.4800  -25.9760   60.4640 C   0  0  0  0  0  0  0  0  0  0  0  0
    7.7210  -26.8580   61.5510 O   0  0  0  0  0  0  0  0  0  0  0  0
    7.7860  -26.1610   62.7870 C   0  0  0  0  0  0  0  0  0  0  0  0
    1.3040  -22.8830   60.1610 C   0  0  0  0  0  0  0  0  0  0  0  0
    1.5060  -21.3870   60.1000 C   0  0  0  0  0  0  0  0  0  0  0  0
    2.6320  -20.7960   60.6800 C   0  0  0  0  0  0  0  0  0  0  0  0
    2.8150  -19.4140   60.6190 C   0  0  0  0  0  0  0  0  0  0  0  0
    1.8820  -18.5910   59.9730 C   0  0  0  0  0  0  0  0  0  0  0  0
    2.1200  -17.1070   59.9210 C   0  0  0  0  0  0  0  0  0  0  0  0
    0.7500  -19.1760   59.3720 C   0  0  0  0  0  0  0  0  0  0  0  0
   -0.2730  -18.3420   58.6500 C   0  0  0  0  0  0  0  0  0  0  0  0
    0.5760  -20.5690   59.4400 C   0  0  0  0  0  0  0  0  0  0  0  0
  1 11  1  1
  1  2  1  0
  1  8  1  0
  2  3  1  0
  3  6  1  0
  4  3  1  0
  4 17  1  0
  5  4  2  0
  6  7  1  0
  8  7  1  0
  9  8  1  0
  9 20  1  0
 10  9  2  0
 12 11  1  0
 13 14  1  0
 14 12  1  0
 15 16  1  0
 15 12  1  0
 17 18  1  0
 18 19  1  0
 21 20  1  0
 21 22  1  0
 23 22  2  0
 24 23  1  0
 25 24  1  0
 26 28  1  0
 26 24  2  0
 27 26  1  0
 28 21  2  0
M  END
$$$$
