lig_025
     RDKit          3D

 28 32  0  0  1  0  0  0  0  0999 V2000
  186.3470  170.6450  173.8150 C   0  0  0  0  0  0  0  0  0  0  0  0
  187.7040  171.3700  173.7680 C   0  0  0  0  0  0  0  0  0  0  0  0
  187.8400  172.4830  172.7240 C   0  0  0  0  0  0  0  0  0  0  0  0
  186.6510  173.3020  172.5370 N   0  0  0  0  0  0  0  0  0  0  0  0
  185.4350  172.5260  172.3570 C   0  0  0  0  0  0  0  0  0  0  0  0
  185.1600  171.5620  173.5000 C   0  0  0  0  0  0  0  0  0  0  0  0
  186.5050  167.6880  171.4030 C   0  0  1  0  0  0  0  0  0  0  0  0
  186.9360  169.0970  171.8590 C   0  0  0  0  0  0  0  0  0  0  0  0
  187.7170  169.8120  171.2510 O   0  0  0  0  0  0  0  0  0  0  0  0
  186.2880  169.3820  173.0680 N   0  0  0  0  0  0  0  0  0  0  0  0
  185.4140  168.3300  173.4100 C   0  0  0  0  0  0  0  0  0  0  0  0
  184.5440  168.2240  174.4830 C   0  0  0  0  0  0  0  0  0  0  0  0
  183.7800  167.0590  174.6070 C   0  0  0  0  0  0  0  0  0  0  0  0
  183.8930  166.0250  173.6650 C   0  0  0  0  0  0  0  0  0  0  0  0
  184.7650  166.1450  172.5840 C   0  0  0  0  0  0  0  0  0  0  0  0
  185.5100  167.3090  172.4650 C   0  0  0  0  0  0  0  0  0  0  0  0
  186.8780  167.2510  168.9270 C   0  0  0  0  0  0  0  0  0  0  0  0
  185.8950  167.7040  169.9990 C   0  0  0  0  0  0  0  0  0  0  0  0
  186.5430  174.5720  173.2670 C   0  0  1  0  0  0  0  0  0  0  0  0
  187.3710  174.6360  174.5650 C   0  0  0  0  0  0  0  0  0  0  0  0
  187.2420  176.0120  175.2120 C   0  0  0  0  0  0  0  0  0  0  0  0
  187.8570  177.0720  174.3070 C   0  0  0  0  0  0  0  0  0  0  0  0
  187.4020  176.9630  172.8730 C   0  0  0  0  0  0  0  0  0  0  0  0
  187.6110  178.0610  172.0220 C   0  0  0  0  0  0  0  0  0  0  0  0
  187.2190  178.0130  170.6850 C   0  0  0  0  0  0  0  0  0  0  0  0
  186.6160  176.8670  170.1830 C   0  0  0  0  0  0  0  0  0  0  0  0
  186.4120  175.7660  171.0150 C   0  0  0  0  0  0  0  0  0  0  0  0
  186.8200  175.7820  172.3630 C   0  0  0  0  0  0  0  0  0  0  0  0
  1 10  1  0
  2  1  1  0
  3  2  1  0
  4  5  1  0
  4  3  1  0
 19  4  1  6
  5  6  1  0
  6  1  1  0
  7 18  1  6
  7  8  1  0
  7 16  1  0
  8 10  1  0
  9  8  2  0
 10 11  1  0
 11 12  2  0
 12 13  1  0
 14 13  2  0
 15 14  1  0
 16 15  2  0
 16 11  1  0
 17 18  1  0
 19 20  1  0
 20 21  1  0
 22 21  1  0
 23 22  1  0
 24 23  2  0
 25 24  1  0
 26 25  2  0
 26 27  1  0
 27 28  2  0
 28 23  1  0
 28 19  1  0
M  END
$$$$
