lig_104
     RDKit          3D

 30 34  0  0  1  0  0  0  0  0999 V2000
   -0.7990    3.9710   18.6430 C   0  0  0  0  0  0  0  0  0  0  0  0
   -1.9200    3.1700   18.3870 C   0  0  0  0  0  0  0  0  0  0  0  0
   -3.0090    3.6710   17.6640 C   0  0  0  0  0  0  0  0  0  0  0  0
   -2.9930    4.9790   17.1880 C   0  0  0  0  0  0  0  0  0  0  0  0
   -1.8820    5.7840   17.4370 C   0  0  0  0  0  0  0  0  0  0  0  0
   -0.7690    5.2980   18.1660 C   0  0  0  0  0  0  0  0  0  0  0  0
    0.3750    6.1220   18.4230 N   0  0  0  0  0  0  0  0  0  0  0  0
    0.4110    7.3460   17.9700 C   0  0  0  0  0  0  0  0  0  0  0  0
    1.4940    8.1570   18.1980 N   0  0  0  0  0  0  0  0  0  0  0  0
   -0.6810    7.8640   17.2540 N   0  0  0  0  0  0  0  0  0  0  0  0
   -0.7700    9.1380   16.8040 N   0  0  0  0  0  0  0  0  0  0  0  0
   -1.9770    9.1110   16.2150 C   0  0  0  0  0  0  0  0  0  0  0  0
   -2.6520    7.9120   16.3080 N   0  0  0  0  0  0  0  0  0  0  0  0
   -1.8090    7.1530   16.9730 C   0  0  0  0  0  0  0  0  0  0  0  0
   -2.5720   10.2940   15.5120 C   0  0  2  0  0  0  0  0  0  0  0  0
   -2.0760   10.4250   14.0590 C   0  0  0  0  0  0  0  0  0  0  0  0
   -1.0920   11.5810   13.9130 C   0  0  0  0  0  0  0  0  0  0  0  0
   -1.7140   12.9080   14.3710 C   0  0  0  0  0  0  0  0  0  0  0  0
   -2.6290   12.7780   15.5150 N   0  0  0  0  0  0  0  0  0  0  0  0
   -2.3430   11.5870   16.3270 C   0  0  0  0  0  0  0  0  0  0  0  0
   -2.8190   14.0020   16.3110 C   0  0  0  0  0  0  0  0  0  0  0  0
   -2.7500   15.2600   15.4170 C   0  0  0  0  0  0  0  0  0  0  0  0
   -2.8540   16.5240   16.2660 C   0  0  0  0  0  0  0  0  0  0  0  0
   -1.7210   16.6160   17.2790 C   0  0  0  0  0  0  0  0  0  0  0  0
   -0.8250   17.5540   16.8740 F   0  0  0  0  0  0  0  0  0  0  0  0
   -2.2300   17.0660   18.4580 F   0  0  0  0  0  0  0  0  0  0  0  0
   -0.9770   15.3120   17.5210 C   0  0  0  0  0  0  0  0  0  0  0  0
   -1.9260   14.1190   17.5720 C   0  0  0  0  0  0  0  0  0  0  0  0
    0.8110    2.2590   19.0760 C   0  0  0  0  0  0  0  0  0  0  0  0
    0.3060    3.5580   19.3460 O   0  0  0  0  0  0  0  0  0  0  0  0
  1 30  1  0
  2  1  1  0
  3  2  2  0
  4  5  2  0
  4  3  1  0
  5  6  1  0
  6  7  1  0
  6  1  2  0
  8  9  1  0
  8  7  2  0
 10  8  1  0
 11 10  1  0
 12 13  1  0
 12 11  2  0
 13 14  2  0
 14 10  1  0
 14  5  1  0
 15 12  1  1
 15 20  1  0
 16 15  1  0
 17 16  1  0
 17 18  1  0
 18 19  1  0
 19 21  1  0
 19 20  1  0
 21 28  1  0
 22 23  1  0
 22 21  1  0
 23 24  1  0
 24 27  1  0
 24 26  1  0
 25 24  1  0
 27 28  1  0
 29 30  1  0
M  END
$$$$
