lig_023
     RDKit          3D

 31 35  0  0  1  0  0  0  0  0999 V2000
  186.6210  174.2940  174.5650 C   0  0  2  0  0  0  0  0  0  0  0  0
  186.0940  175.6450  175.1310 C   0  0  0  0  0  0  0  0  0  0  0  0
  187.1690  176.7200  175.3680 C   0  0  0  0  0  0  0  0  0  0  0  0
  188.5940  176.1670  175.5050 C   0  0  1  0  0  0  0  0  0  0  0  0
  189.0070  175.3350  174.2560 C   0  0  2  0  0  0  0  0  0  0  0  0
  189.5010  176.2200  173.1860 O   0  0  0  0  0  0  0  0  0  0  0  0
  188.4920  176.2580  172.2600 C   0  0  0  0  0  0  0  0  0  0  0  0
  188.3620  177.1400  171.2100 C   0  0  0  0  0  0  0  0  0  0  0  0
  187.1890  177.1000  170.4470 C   0  0  0  0  0  0  0  0  0  0  0  0
  186.1480  176.2050  170.7750 C   0  0  0  0  0  0  0  0  0  0  0  0
  186.2920  175.3180  171.8440 C   0  0  0  0  0  0  0  0  0  0  0  0
  187.5020  175.3370  172.5160 C   0  0  0  0  0  0  0  0  0  0  0  0
  187.8660  174.4790  173.6760 C   0  0  2  0  0  0  0  0  0  0  0  0
  188.4030  173.1150  173.1820 C   0  0  0  0  0  0  0  0  0  0  0  0
  187.3320  172.2560  172.4990 C   0  0  0  0  0  0  0  0  0  0  0  0
  186.0850  172.2140  173.2660 N   0  0  0  0  0  0  0  0  0  0  0  0
  185.0950  171.3490  172.6330 C   0  0  0  0  0  0  0  0  0  0  0  0
  185.5660  173.5640  173.6230 C   0  0  2  0  0  0  0  0  0  0  0  0
  185.1800  174.4460  172.3710 C   0  0  0  0  0  0  0  0  0  0  0  0
  186.1700  173.4130  176.8020 C   0  0  0  0  0  0  0  0  0  0  0  0
  187.0640  173.5090  175.7010 O   0  0  0  0  0  0  0  0  0  0  0  0
  189.4880  177.3270  175.7480 N   0  0  0  0  0  0  0  0  0  0  0  0
  190.1850  177.2660  177.0680 C   0  0  2  0  0  0  0  0  0  0  0  0
  190.3660  178.6350  177.7290 C   0  0  0  0  0  0  0  0  0  0  0  0
  190.5660  178.8180  178.9210 O   0  0  0  0  0  0  0  0  0  0  0  0
  190.3360  179.6840  176.8830 O   0  0  0  0  0  0  0  0  0  0  0  0
  191.5550  176.5940  176.9380 C   0  0  0  0  0  0  0  0  0  0  0  0
  192.4150  177.1530  175.8250 C   0  0  0  0  0  0  0  0  0  0  0  0
  193.0810  178.3040  176.1180 N   0  0  0  0  0  0  0  0  0  0  0  0
  192.4820  176.6460  174.7100 O   0  0  0  0  0  0  0  0  0  0  0  0
  189.3460  178.0440  170.9560 O   0  0  0  0  0  0  0  0  0  0  0  0
  1  2  1  0
  1 21  1  1
  2  3  1  0
  3  4  1  0
  4 22  1  6
  5  6  1  6
  5  4  1  0
  7 12  1  0
  7  6  1  0
  8  7  2  0
  9 10  2  0
  9  8  1  0
 10 11  1  0
 11 19  1  0
 11 12  2  0
 12 13  1  0
 13 14  1  6
 13  5  1  0
 13  1  1  0
 15 14  1  0
 15 16  1  0
 16 18  1  0
 17 16  1  0
 18 19  1  6
 18  1  1  0
 21 20  1  0
 22 23  1  0
 23 27  1  6
 23 24  1  0
 24 25  2  0
 26 24  1  0
 28 29  1  0
 28 27  1  0
 30 28  2  0
 31  8  1  0
M  END
$$$$
