lig_005
     RDKit          3D

 34 39  0  0  1  0  0  0  0  0999 V2000
  179.7120  165.7730  137.0560 C   0  0  1  0  0  0  0  0  0  0  0  0
  180.0390  165.9800  135.5840 C   0  0  0  0  0  0  0  0  0  0  0  0
  180.1280  164.5650  135.0130 C   0  0  2  0  0  0  0  0  0  0  0  0
  179.1720  164.1060  133.9340 C   0  0  0  0  0  0  0  0  0  0  0  0
  178.0040  164.8010  133.5930 C   0  0  0  0  0  0  0  0  0  0  0  0
  177.1140  164.2820  132.6510 C   0  0  0  0  0  0  0  0  0  0  0  0
  177.3740  163.0560  132.0460 C   0  0  0  0  0  0  0  0  0  0  0  0
  178.5270  162.3490  132.3790 C   0  0  0  0  0  0  0  0  0  0  0  0
  179.4350  162.8580  133.3230 C   0  0  0  0  0  0  0  0  0  0  0  0
  180.7130  162.0940  133.6130 C   0  0  0  0  0  0  0  0  0  0  0  0
  180.9720  161.6080  135.0320 C   0  0  0  0  0  0  0  0  0  0  0  0
  181.6410  160.3680  135.1520 C   0  0  0  0  0  0  0  0  0  0  0  0
  181.9890  159.8370  136.3930 C   0  0  0  0  0  0  0  0  0  0  0  0
  181.6850  160.5390  137.5490 C   0  0  0  0  0  0  0  0  0  0  0  0
  181.0390  161.7700  137.4580 C   0  0  0  0  0  0  0  0  0  0  0  0
  180.6880  162.3360  136.2130 C   0  0  0  0  0  0  0  0  0  0  0  0
  179.9240  163.6480  136.2270 C   0  0  1  0  0  0  0  0  0  0  0  0
  180.2460  164.4730  137.3670 O   0  0  0  0  0  0  0  0  0  0  0  0
  180.3210  166.8300  137.9930 C   0  0  0  0  0  0  0  0  0  0  0  0
  177.9990  170.2360  139.3690 C   0  0  0  0  0  0  0  0  0  0  0  0
  178.9740  169.5190  140.3130 C   0  0  0  0  0  0  0  0  0  0  0  0
  179.9980  168.6450  139.5840 C   0  0  0  0  0  0  0  0  0  0  0  0
  179.3370  167.7000  138.6710 N   0  0  0  0  0  0  0  0  0  0  0  0
  178.5560  168.4340  137.6640 C   0  0  0  0  0  0  0  0  0  0  0  0
  177.4510  169.2570  138.3280 C   0  0  0  0  0  0  0  0  0  0  0  0
  179.6750  171.9650  139.1420 O   0  0  0  0  0  0  0  0  0  0  0  0
  178.6420  171.4570  138.7040 C   0  0  0  0  0  0  0  0  0  0  0  0
  178.0180  172.0610  137.4800 C   0  0  0  0  0  0  0  0  0  0  0  0
  178.5020  171.8370  136.1840 C   0  0  0  0  0  0  0  0  0  0  0  0
  177.8720  172.4300  135.0850 C   0  0  0  0  0  0  0  0  0  0  0  0
  176.7600  173.2400  135.2800 C   0  0  0  0  0  0  0  0  0  0  0  0
  176.1610  173.8030  134.2230 F   0  0  0  0  0  0  0  0  0  0  0  0
  176.2630  173.4720  136.5540 C   0  0  0  0  0  0  0  0  0  0  0  0
  176.8900  172.8820  137.6540 C   0  0  0  0  0  0  0  0  0  0  0  0
  1 18  1  0
  1 19  1  1
  2  1  1  0
  3  2  1  1
  3 17  1  0
  4  3  1  0
  5  4  2  0
  6  5  1  0
  7  8  1  0
  7  6  2  0
  8  9  2  0
  9 10  1  0
  9  4  1  0
 10 11  1  0
 11 12  2  0
 11 16  1  0
 12 13  1  0
 13 14  2  0
 15 14  1  0
 16 15  2  0
 17 16  1  0
 17 18  1  1
 19 23  1  0
 20 27  1  0
 20 21  1  0
 22 21  1  0
 23 22  1  0
 24 25  1  0
 24 23  1  0
 25 20  1  0
 27 26  2  0
 28 34  2  0
 28 27  1  0
 29 28  1  0
 30 31  1  0
 30 29  2  0
 31 33  2  0
 32 31  1  0
 33 34  1  0
M  END
$$$$
