lig_066
     RDKit          3D

 27 29  0  0  1  0  0  0  0  0999 V2000
    0.3120  -21.0380   13.7010 C   0  0  0  0  0  0  0  0  0  0  0  0
    1.1590  -21.6610   13.0680 O   0  0  0  0  0  0  0  0  0  0  0  0
    0.1030  -19.6900   13.5250 N   0  0  0  0  0  0  0  0  0  0  0  0
   -1.9860  -23.0220   16.7950 C   0  0  0  0  0  0  0  0  0  0  0  0
   -2.3990  -23.1190   15.4550 C   0  0  0  0  0  0  0  0  0  0  0  0
   -1.6850  -22.5040   14.4090 C   0  0  0  0  0  0  0  0  0  0  0  0
   -0.5390  -21.7430   14.7140 C   0  0  0  0  0  0  0  0  0  0  0  0
   -0.1320  -21.6160   16.0510 C   0  0  0  0  0  0  0  0  0  0  0  0
   -0.8530  -22.2340   17.0720 C   0  0  0  0  0  0  0  0  0  0  0  0
   -0.2970  -22.0330   18.7000 Cl  0  0  0  0  0  0  0  0  0  0  0  0
   -2.6180  -25.0040   18.1120 C   0  0  0  0  0  0  0  0  0  0  0  0
   -2.7380  -23.5810   17.8470 N   0  0  0  0  0  0  0  0  0  0  0  0
   -2.0490  -22.6060   13.0890 O   0  0  0  0  0  0  0  0  0  0  0  0
   -1.8740  -23.8600   12.4380 C   0  0  0  0  0  0  0  0  0  0  0  0
    0.7670  -18.9400   12.4630 C   0  0  2  0  0  0  0  0  0  0  0  0
    2.0210  -18.2540   12.9960 C   0  0  0  0  0  0  0  0  0  0  0  0
    1.5440  -16.8530   13.3290 C   0  0  0  0  0  0  0  0  0  0  0  0
    0.6620  -16.5440   12.2000 N   0  0  0  0  0  0  0  0  0  0  0  0
   -0.1170  -17.7760   11.9410 C   0  0  1  0  0  0  0  0  0  0  0  0
   -0.3990  -17.9130   10.4480 C   0  0  0  0  0  0  0  0  0  0  0  0
   -0.1980  -15.3820   12.4530 C   0  0  0  0  0  0  0  0  0  0  0  0
   -0.1180  -14.3360   11.3610 C   0  0  0  0  0  0  0  0  0  0  0  0
   -0.9170  -13.1830   11.4220 C   0  0  0  0  0  0  0  0  0  0  0  0
   -0.8380  -12.2120   10.4240 C   0  0  0  0  0  0  0  0  0  0  0  0
    0.0400  -12.3790    9.3560 C   0  0  0  0  0  0  0  0  0  0  0  0
    0.8410  -13.5180    9.2840 C   0  0  0  0  0  0  0  0  0  0  0  0
    0.7630  -14.4910   10.2830 C   0  0  0  0  0  0  0  0  0  0  0  0
  1  7  1  0
  2  1  2  0
  3  1  1  0
  4  9  1  0
  4 12  1  0
  5  4  2  0
  6  7  2  0
  6  5  1  0
  7  8  1  0
  8  9  2  0
  9 10  1  0
 12 11  1  0
 13  6  1  0
 14 13  1  0
 15 16  1  0
 15  3  1  1
 16 17  1  0
 18 21  1  0
 18 17  1  0
 19 20  1  6
 19 18  1  0
 19 15  1  0
 22 23  2  0
 22 21  1  0
 24 23  1  0
 25 24  2  0
 26 25  1  0
 26 27  2  0
 27 22  1  0
M  END
$$$$
