lig_014
     RDKit          3D

 24 26  0  0  1  0  0  0  0  0999 V2000
  123.5560  141.1550  108.6780 C   0  0  1  0  0  0  0  0  0  0  0  0
  124.6070  141.7940  107.7490 C   0  0  0  0  0  0  0  0  0  0  0  0
  125.0720  140.8690  106.6290 C   0  0  0  0  0  0  0  0  0  0  0  0
  123.8810  140.4480  105.7980 C   0  0  0  0  0  0  0  0  0  0  0  0
  122.7100  140.0730  106.4930 C   0  0  0  0  0  0  0  0  0  0  0  0
  121.5760  139.6600  105.7850 C   0  0  0  0  0  0  0  0  0  0  0  0
  121.5920  139.6290  104.3950 C   0  0  0  0  0  0  0  0  0  0  0  0
  122.7480  139.9930  103.7040 C   0  0  0  0  0  0  0  0  0  0  0  0
  123.9080  140.4010  104.3870 C   0  0  0  0  0  0  0  0  0  0  0  0
  122.7210  140.0300  108.0030 C   0  0  0  0  0  0  0  0  0  0  0  0
  125.1040  140.7500  103.6050 C   0  0  0  0  0  0  0  0  0  0  0  0
  125.2530  142.0690  103.1360 C   0  0  0  0  0  0  0  0  0  0  0  0
  126.3730  142.4490  102.3920 C   0  0  0  0  0  0  0  0  0  0  0  0
  127.3660  141.5160  102.1050 C   0  0  0  0  0  0  0  0  0  0  0  0
  127.2410  140.2040  102.5610 C   0  0  0  0  0  0  0  0  0  0  0  0
  126.1190  139.8210  103.3060 C   0  0  0  0  0  0  0  0  0  0  0  0
  126.0320  138.1740  103.8300 Cl  0  0  0  0  0  0  0  0  0  0  0  0
  124.0790  140.8220  110.0360 N   0  0  0  0  0  0  0  0  0  0  0  0
  123.8910  141.9640  110.9570 C   0  0  0  0  0  0  0  0  0  0  0  0
  124.3200  141.9230  113.4690 C   0  0  0  0  0  0  0  0  0  0  0  0
  123.3690  141.5520  112.3410 C   0  0  0  0  0  0  0  0  0  0  0  0
  123.5440  139.5760  110.6220 C   0  0  0  0  0  0  0  0  0  0  0  0
  124.5830  138.4740  110.8780 C   0  0  0  0  0  0  0  0  0  0  0  0
  125.1710  137.8760  109.6100 C   0  0  0  0  0  0  0  0  0  0  0  0
  1 18  1  1
  2  1  1  0
  3  2  1  0
  4  5  2  0
  4  3  1  0
  5 10  1  0
  6  5  1  0
  7  6  2  0
  8  9  2  0
  8  7  1  0
  9  4  1  0
 10  1  1  0
 11  9  1  0
 12 11  2  0
 13 12  1  0
 14 13  2  0
 14 15  1  0
 15 16  2  0
 16 11  1  0
 16 17  1  0
 18 22  1  0
 18 19  1  0
 19 21  1  0
 21 20  1  0
 22 23  1  0
 24 23  1  0
M  END
$$$$
