lig_448
     RDKit          3D

 32 35  0  0  0  0  0  0  0  0999 V2000
   -3.2690    9.3210   15.7640 C   0  0  0  0  0  0  0  0  0  0  0  0
   -2.7860    8.2120   16.4090 N   0  0  0  0  0  0  0  0  0  0  0  0
   -1.4780    8.1660   16.8030 C   0  0  0  0  0  0  0  0  0  0  0  0
   -1.1800    6.9640   17.4360 N   0  0  0  0  0  0  0  0  0  0  0  0
    0.0470    6.5660   17.9090 C   0  0  0  0  0  0  0  0  0  0  0  0
    1.0850    7.2200   17.8800 O   0  0  0  0  0  0  0  0  0  0  0  0
   -0.5300    9.1120   16.6480 N   0  0  0  0  0  0  0  0  0  0  0  0
   -0.9850   10.2130   16.0160 C   0  0  0  0  0  0  0  0  0  0  0  0
   -0.2940   11.3140   15.7130 N   0  0  0  0  0  0  0  0  0  0  0  0
   -1.1940   12.1040   15.0930 N   0  0  0  0  0  0  0  0  0  0  0  0
   -2.4420   11.5490   14.9880 C   0  0  0  0  0  0  0  0  0  0  0  0
   -2.3260   10.3190   15.5800 C   0  0  0  0  0  0  0  0  0  0  0  0
   -4.6780    9.3840   15.3270 C   0  0  0  0  0  0  0  0  0  0  0  0
   -5.5160   10.1400   15.7900 O   0  0  0  0  0  0  0  0  0  0  0  0
   -4.8900    8.4750   14.3380 O   0  0  0  0  0  0  0  0  0  0  0  0
   -5.3540    6.2410   15.0410 C   0  0  0  0  0  0  0  0  0  0  0  0
   -5.9580    7.5580   14.5960 C   0  0  0  0  0  0  0  0  0  0  0  0
    0.0270    5.1980   18.5790 C   0  0  0  0  0  0  0  0  0  0  0  0
   -1.0420    4.2630   18.0620 C   0  0  0  0  0  0  0  0  0  0  0  0
   -1.7990    4.5990   16.9310 C   0  0  0  0  0  0  0  0  0  0  0  0
   -2.7710    3.7230   16.4470 C   0  0  0  0  0  0  0  0  0  0  0  0
   -3.0000    2.5080   17.0900 C   0  0  0  0  0  0  0  0  0  0  0  0
   -2.2580    2.1680   18.2200 C   0  0  0  0  0  0  0  0  0  0  0  0
   -1.2840    3.0420   18.7060 C   0  0  0  0  0  0  0  0  0  0  0  0
   -0.7880   13.4140   14.6160 C   0  0  0  0  0  0  0  0  0  0  0  0
   -1.9690   14.3750   14.5330 C   0  0  0  0  0  0  0  0  0  0  0  0
   -2.0040   15.3060   15.7190 C   0  0  0  0  0  0  0  0  0  0  0  0
   -1.9610   14.7910   17.0220 C   0  0  0  0  0  0  0  0  0  0  0  0
   -2.0180   15.6490   18.1210 C   0  0  0  0  0  0  0  0  0  0  0  0
   -2.1210   17.0260   17.9290 C   0  0  0  0  0  0  0  0  0  0  0  0
   -2.1680   17.5460   16.6380 C   0  0  0  0  0  0  0  0  0  0  0  0
   -2.1120   16.6910   15.5360 C   0  0  0  0  0  0  0  0  0  0  0  0
  1  2  2  0
  2  3  1  0
  3  4  1  0
  4  5  1  0
  5 18  1  0
  6  5  2  0
  7  3  2  0
  8  7  1  0
  9  8  2  0
 10  9  1  0
 11 10  1  0
 11 12  2  0
 12  1  1  0
 12  8  1  0
 13  1  1  0
 13 14  2  0
 15 17  1  0
 15 13  1  0
 17 16  1  0
 19 18  1  0
 19 24  1  0
 20 19  2  0
 21 20  1  0
 21 22  2  0
 22 23  1  0
 23 24  2  0
 25 10  1  0
 26 25  1  0
 26 27  1  0
 27 28  2  0
 28 29  1  0
 30 29  2  0
 31 30  1  0
 32 27  1  0
 32 31  2  0
M  END
$$$$
