lig_221
     RDKit          3D

 22 25  0  0  0  0  0  0  0  0999 V2000
    0.3830  -21.3840   19.0970 C   0  0  0  0  0  0  0  0  0  0  0  0
   -0.3940  -21.4040   17.8590 N   0  0  0  0  0  0  0  0  0  0  0  0
   -1.5290  -22.3420   17.9550 C   0  0  0  0  0  0  0  0  0  0  0  0
   -1.2480  -23.6490   17.1900 C   0  0  0  0  0  0  0  0  0  0  0  0
   -1.6800  -23.6020   15.7360 C   0  0  0  0  0  0  0  0  0  0  0  0
   -2.9560  -24.1120   15.4210 C   0  0  0  0  0  0  0  0  0  0  0  0
   -3.4400  -24.0960   14.1130 C   0  0  0  0  0  0  0  0  0  0  0  0
   -2.6590  -23.5690   13.0940 C   0  0  0  0  0  0  0  0  0  0  0  0
   -1.3960  -23.0540   13.3850 C   0  0  0  0  0  0  0  0  0  0  0  0
   -0.8910  -23.0520   14.7010 C   0  0  0  0  0  0  0  0  0  0  0  0
    0.4960  -22.4770   14.9260 C   0  0  0  0  0  0  0  0  0  0  0  0
    0.6400  -21.0110   14.5730 C   0  0  0  0  0  0  0  0  0  0  0  0
    1.8780  -20.5780   13.4730 S   0  0  0  0  0  0  0  0  0  0  0  0
    1.5300  -18.9060   13.5880 C   0  0  0  0  0  0  0  0  0  0  0  0
    2.1960  -17.8620   12.9150 C   0  0  0  0  0  0  0  0  0  0  0  0
    1.7870  -16.5450   13.1280 C   0  0  0  0  0  0  0  0  0  0  0  0
    0.7400  -16.2690   13.9910 C   0  0  0  0  0  0  0  0  0  0  0  0
    0.0820  -17.3110   14.6560 C   0  0  0  0  0  0  0  0  0  0  0  0
    0.4700  -18.6650   14.4610 C   0  0  0  0  0  0  0  0  0  0  0  0
   -0.0580  -19.8980   15.0300 C   0  0  0  0  0  0  0  0  0  0  0  0
   -1.2250  -19.9260   15.9950 C   0  0  0  0  0  0  0  0  0  0  0  0
   -0.8080  -20.0460   17.4740 C   0  0  0  0  0  0  0  0  0  0  0  0
  2  3  1  0
  2  1  1  0
  4  3  1  0
  5  4  1  0
  6  5  2  0
  7  6  1  0
  8  9  1  0
  8  7  2  0
  9 10  2  0
 10 11  1  0
 10  5  1  0
 12 11  1  0
 12 20  2  0
 13 14  1  0
 13 12  1  0
 14 19  1  0
 15 16  1  0
 15 14  2  0
 16 17  2  0
 17 18  1  0
 19 18  2  0
 19 20  1  0
 20 21  1  0
 21 22  1  0
 22  2  1  0
M  END
$$$$
