lig_069
     RDKit          3D

 27 31  0  0  0  0  0  0  0  0999 V2000
    1.0760    6.2450   18.2560 N   0  0  0  0  0  0  0  0  0  0  0  0
   -0.0880    6.7260   17.6980 C   0  0  0  0  0  0  0  0  0  0  0  0
   -1.1100    5.8620   17.5680 N   0  0  0  0  0  0  0  0  0  0  0  0
   -2.2860    6.2990   17.0360 C   0  0  0  0  0  0  0  0  0  0  0  0
   -2.3930    7.6020   16.6440 C   0  0  0  0  0  0  0  0  0  0  0  0
   -1.2850    8.4100   16.8300 C   0  0  0  0  0  0  0  0  0  0  0  0
   -0.1220    8.0190   17.3630 N   0  0  0  0  0  0  0  0  0  0  0  0
   -1.5530    9.7460   16.3560 C   0  0  0  0  0  0  0  0  0  0  0  0
   -0.7630   10.8860   16.3310 C   0  0  0  0  0  0  0  0  0  0  0  0
   -1.2710   12.0880   15.7960 C   0  0  0  0  0  0  0  0  0  0  0  0
   -2.6020   12.0730   15.3000 C   0  0  0  0  0  0  0  0  0  0  0  0
   -3.4070   10.9260   15.3200 C   0  0  0  0  0  0  0  0  0  0  0  0
   -2.8520    9.7860   15.8500 C   0  0  0  0  0  0  0  0  0  0  0  0
   -3.4330    8.4360   16.0090 C   0  0  0  0  0  0  0  0  0  0  0  0
   -4.5510    8.1140   15.6730 O   0  0  0  0  0  0  0  0  0  0  0  0
   -3.3380    5.2750   16.9330 C   0  0  0  0  0  0  0  0  0  0  0  0
   -3.1200    4.1110   16.1700 C   0  0  0  0  0  0  0  0  0  0  0  0
   -4.0940    3.1130   16.0660 C   0  0  0  0  0  0  0  0  0  0  0  0
   -5.3090    3.2570   16.7280 C   0  0  0  0  0  0  0  0  0  0  0  0
   -5.5450    4.3910   17.4980 C   0  0  0  0  0  0  0  0  0  0  0  0
   -4.5670    5.3860   17.6040 C   0  0  0  0  0  0  0  0  0  0  0  0
   -0.5070   13.2420   15.7600 N   0  0  0  0  0  0  0  0  0  0  0  0
    0.2400   13.6550   14.5590 C   0  0  0  0  0  0  0  0  0  0  0  0
    1.4080   14.5740   14.9550 C   0  0  0  0  0  0  0  0  0  0  0  0
    1.0080   15.7670   15.6410 O   0  0  0  0  0  0  0  0  0  0  0  0
   -0.2190   15.6200   16.3690 C   0  0  0  0  0  0  0  0  0  0  0  0
   -0.4740   14.1930   16.8850 C   0  0  0  0  0  0  0  0  0  0  0  0
  2  1  1  0
  3  2  2  0
  4  3  1  0
  5  6  1  0
  5  4  2  0
  6  7  2  0
  7  2  1  0
  8  6  1  0
  9  8  1  0
 10  9  2  0
 11 12  2  0
 11 10  1  0
 12 13  1  0
 13 14  1  0
 13  8  2  0
 14  5  1  0
 15 14  2  0
 16  4  1  0
 16 21  1  0
 17 16  2  0
 18 17  1  0
 18 19  2  0
 19 20  1  0
 20 21  2  0
 22 10  1  0
 22 27  1  0
 23 24  1  0
 23 22  1  0
 24 25  1  0
 25 26  1  0
 26 27  1  0
M  END
$$$$
