lig_190
     RDKit          3D

 24 27  0  0  0  0  0  0  0  0999 V2000
   -1.9890    6.6510   17.1420 C   0  0  0  0  0  0  0  0  0  0  0  0
   -3.0590    5.8690   17.3570 N   0  0  0  0  0  0  0  0  0  0  0  0
   -4.2740    6.3310   17.0100 C   0  0  0  0  0  0  0  0  0  0  0  0
   -4.5640    7.5130   16.4480 N   0  0  0  0  0  0  0  0  0  0  0  0
   -3.4680    8.2600   16.2460 C   0  0  0  0  0  0  0  0  0  0  0  0
   -3.5890    9.8060   15.5410 S   0  0  0  0  0  0  0  0  0  0  0  0
   -1.8970   10.0550   15.6270 C   0  0  0  0  0  0  0  0  0  0  0  0
   -1.2620    8.9710   16.2050 C   0  0  0  0  0  0  0  0  0  0  0  0
   -2.1650    7.9140   16.5580 C   0  0  0  0  0  0  0  0  0  0  0  0
   -5.4160    5.4580   17.2580 C   0  0  0  0  0  0  0  0  0  0  0  0
   -6.5200    5.5490   18.0870 C   0  0  0  0  0  0  0  0  0  0  0  0
   -7.2830    4.3750   17.8780 C   0  0  0  0  0  0  0  0  0  0  0  0
   -6.6050    3.6330   16.9360 C   0  0  0  0  0  0  0  0  0  0  0  0
   -7.0750    2.1080   16.2990 Cl  0  0  0  0  0  0  0  0  0  0  0  0
   -5.4720    4.2850   16.5550 O   0  0  0  0  0  0  0  0  0  0  0  0
   -0.7520    6.1400   17.5080 N   0  0  0  0  0  0  0  0  0  0  0  0
   -1.2870   11.3410   15.1350 C   0  0  0  0  0  0  0  0  0  0  0  0
   -0.8600   12.2040   16.2400 N   0  0  0  0  0  0  0  0  0  0  0  0
   -0.0110   13.3370   15.8690 C   0  0  0  0  0  0  0  0  0  0  0  0
   -0.4520   14.2440   14.7190 C   0  0  0  0  0  0  0  0  0  0  0  0
   -1.8920   14.7530   14.7160 C   0  0  0  0  0  0  0  0  0  0  0  0
   -2.5780   14.8360   16.0730 C   0  0  0  0  0  0  0  0  0  0  0  0
   -3.0530   13.4750   16.5810 C   0  0  0  0  0  0  0  0  0  0  0  0
   -1.9490   12.5800   17.1410 C   0  0  0  0  0  0  0  0  0  0  0  0
  1  2  1  0
  1 16  1  0
  3 10  1  0
  3  2  2  0
  4  3  1  0
  5  4  2  0
  5  9  1  0
  6  7  1  0
  6  5  1  0
  7  8  2  0
  8  9  1  0
  9  1  2  0
 10 11  2  0
 12 11  1  0
 13 12  2  0
 14 13  1  0
 15 13  1  0
 15 10  1  0
 17  7  1  0
 17 18  1  0
 18 24  1  0
 19 18  1  0
 20 19  1  0
 21 20  1  0
 21 22  1  0
 22 23  1  0
 23 24  1  0
M  END
$$$$
