lig_494
     RDKit          3D

 30 34  0  0  0  0  0  0  0  0999 V2000
   -2.9270   11.3610   15.0680 O   0  0  0  0  0  0  0  0  0  0  0  0
   -1.7820   11.3760   15.5060 C   0  0  0  0  0  0  0  0  0  0  0  0
   -1.1460   10.3430   16.1540 N   0  0  0  0  0  0  0  0  0  0  0  0
   -1.6320    9.0970   16.4360 C   0  0  0  0  0  0  0  0  0  0  0  0
   -0.9010    8.2210   17.0790 N   0  0  0  0  0  0  0  0  0  0  0  0
   -1.6020    7.0320   17.2160 C   0  0  0  0  0  0  0  0  0  0  0  0
   -2.9000    7.0500   16.7300 C   0  0  0  0  0  0  0  0  0  0  0  0
   -3.1860    8.5800   15.9900 S   0  0  0  0  0  0  0  0  0  0  0  0
   -3.9590    6.0680   16.7640 C   0  0  0  0  0  0  0  0  0  0  0  0
   -5.0490    6.2950   17.4260 N   0  0  0  0  0  0  0  0  0  0  0  0
   -6.0490    5.3100   17.4350 C   0  0  0  0  0  0  0  0  0  0  0  0
   -7.2270    5.5510   18.1430 C   0  0  0  0  0  0  0  0  0  0  0  0
   -8.2470    4.5950   18.1750 C   0  0  0  0  0  0  0  0  0  0  0  0
   -8.0970    3.3850   17.4950 C   0  0  0  0  0  0  0  0  0  0  0  0
   -6.9250    3.1300   16.7840 C   0  0  0  0  0  0  0  0  0  0  0  0
   -5.9140    4.0950   16.7610 C   0  0  0  0  0  0  0  0  0  0  0  0
   -4.6610    3.8700   16.0250 C   0  0  0  0  0  0  0  0  0  0  0  0
   -4.4430    2.8360   15.4080 O   0  0  0  0  0  0  0  0  0  0  0  0
   -3.7500    4.8930   16.0790 N   0  0  0  0  0  0  0  0  0  0  0  0
   -0.9590    5.8900   17.8470 C   0  0  0  0  0  0  0  0  0  0  0  0
    0.3960    5.9240   18.2040 C   0  0  0  0  0  0  0  0  0  0  0  0
    0.9970    4.8070   18.7870 C   0  0  0  0  0  0  0  0  0  0  0  0
    0.2470    3.6570   19.0290 C   0  0  0  0  0  0  0  0  0  0  0  0
   -1.1070    3.6230   18.6980 C   0  0  0  0  0  0  0  0  0  0  0  0
   -1.7100    4.7390   18.1140 C   0  0  0  0  0  0  0  0  0  0  0  0
   -0.9350   12.5510   15.3840 C   0  0  0  0  0  0  0  0  0  0  0  0
    0.4240   12.7160   15.5710 C   0  0  0  0  0  0  0  0  0  0  0  0
    0.7090   14.0780   15.3140 C   0  0  0  0  0  0  0  0  0  0  0  0
   -0.4900   14.6650   14.9860 C   0  0  0  0  0  0  0  0  0  0  0  0
   -1.4950   13.7510   15.0240 O   0  0  0  0  0  0  0  0  0  0  0  0
  1  2  2  0
  2  3  1  0
  3  4  1  0
  4  5  2  0
  5  6  1  0
  6 20  1  0
  7  9  1  0
  7  6  2  0
  8  4  1  0
  8  7  1  0
  9 10  2  0
 10 11  1  0
 11 12  2  0
 12 13  1  0
 14 13  2  0
 15 14  1  0
 16 15  2  0
 16 11  1  0
 17 19  1  0
 17 16  1  0
 18 17  2  0
 19  9  1  0
 20 25  1  0
 20 21  2  0
 21 22  1  0
 22 23  2  0
 24 23  1  0
 25 24  2  0
 26  2  1  0
 26 27  2  0
 28 27  1  0
 29 30  1  0
 29 28  2  0
 30 26  1  0
M  END
$$$$
