lig_024
     RDKit          3D

 27 30  0  0  0  0  0  0  0  0999 V2000
  -14.2580  -13.3480   28.0940 N   0  0  0  0  0  0  0  0  0  0  0  0
  -12.8700  -13.7400   28.3880 C   0  0  0  0  0  0  0  0  0  0  0  0
  -12.0380  -12.5810   28.9890 C   0  0  0  0  0  0  0  0  0  0  0  0
  -12.2940  -11.2810   28.3330 N   0  0  0  0  0  0  0  0  0  0  0  0
  -11.4780  -10.1900   28.6510 C   0  0  0  0  0  0  0  0  0  0  0  0
  -10.3790  -10.4100   29.3250 N   0  0  0  0  0  0  0  0  0  0  0  0
   -9.4630   -9.4160   29.7100 C   0  0  0  0  0  0  0  0  0  0  0  0
   -9.0230   -9.4500   31.0400 C   0  0  0  0  0  0  0  0  0  0  0  0
   -8.0450   -8.5670   31.5020 C   0  0  0  0  0  0  0  0  0  0  0  0
   -7.4770   -7.6440   30.6290 C   0  0  0  0  0  0  0  0  0  0  0  0
   -7.8920   -7.6000   29.2980 C   0  0  0  0  0  0  0  0  0  0  0  0
   -8.8810   -8.4810   28.8340 C   0  0  0  0  0  0  0  0  0  0  0  0
   -9.4210   -8.3220   27.1330 S   0  0  0  0  0  0  0  0  0  0  0  0
  -11.1280   -7.9540   27.4970 C   0  0  0  0  0  0  0  0  0  0  0  0
  -11.6550   -6.7280   27.0710 C   0  0  0  0  0  0  0  0  0  0  0  0
  -12.9690   -6.3690   27.3880 C   0  0  0  0  0  0  0  0  0  0  0  0
  -13.7660   -7.2310   28.1380 C   0  0  0  0  0  0  0  0  0  0  0  0
  -13.2560   -8.4570   28.5600 C   0  0  0  0  0  0  0  0  0  0  0  0
  -11.9410   -8.8250   28.2330 C   0  0  0  0  0  0  0  0  0  0  0  0
  -12.9720  -11.3940   27.0360 C   0  0  0  0  0  0  0  0  0  0  0  0
  -14.2910  -12.1970   27.1650 C   0  0  0  0  0  0  0  0  0  0  0  0
  -15.0610  -14.4860   27.6290 C   0  0  0  0  0  0  0  0  0  0  0  0
  -16.5460  -14.3880   28.0240 C   0  0  0  0  0  0  0  0  0  0  0  0
  -16.7800  -13.3210   28.9510 O   0  0  0  0  0  0  0  0  0  0  0  0
  -17.1220  -13.7840   30.2640 C   0  0  0  0  0  0  0  0  0  0  0  0
  -15.8840  -13.6500   31.1440 C   0  0  0  0  0  0  0  0  0  0  0  0
  -15.1740  -12.4630   30.7940 O   0  0  0  0  0  0  0  0  0  0  0  0
  1  2  1  0
  2  3  1  0
  4  5  1  0
  4  3  1  0
  5  6  2  0
  6  7  1  0
  7  8  2  0
  8  9  1  0
 10  9  2  0
 11 10  1  0
 12 11  2  0
 12  7  1  0
 13 14  1  0
 13 12  1  0
 14 19  1  0
 15 16  1  0
 15 14  2  0
 16 17  2  0
 17 18  1  0
 19 18  2  0
 19  5  1  0
 20 21  1  0
 20  4  1  0
 21  1  1  0
 22 23  1  0
 22  1  1  0
 23 24  1  0
 24 25  1  0
 25 26  1  0
 27 26  1  0
M  END
$$$$
