lig_010
     RDKit          3D

 33 36  0  0  1  0  0  0  0  0999 V2000
   13.9290    0.5170   60.6320 N   0  0  0  0  0  0  0  0  0  0  0  0
   12.9020   -0.1980   61.2030 C   0  0  0  0  0  0  0  0  0  0  0  0
   13.1250   -1.2160   61.8490 O   0  0  0  0  0  0  0  0  0  0  0  0
   11.6350    0.3270   60.9820 N   0  0  0  0  0  0  0  0  0  0  0  0
   10.4560   -0.1970   61.7100 C   0  0  1  0  0  0  0  0  0  0  0  0
   10.2690   -1.7180   61.6830 C   0  0  0  0  0  0  0  0  0  0  0  0
    8.9190   -2.0790   62.3070 C   0  0  0  0  0  0  0  0  0  0  0  0
    8.8120   -1.5530   63.6780 N   0  0  0  0  0  0  0  0  0  0  0  0
    7.5500   -1.9690   64.2880 C   0  0  0  0  0  0  0  0  0  0  0  0
    8.9450   -0.0920   63.7160 C   0  0  0  0  0  0  0  0  0  0  0  0
   10.2940    0.3130   63.1410 C   0  0  0  0  0  0  0  0  0  0  0  0
   11.4640    0.4070   64.1060 C   0  0  0  0  0  0  0  0  0  0  0  0
   10.8570    1.6650   63.5510 C   0  0  0  0  0  0  0  0  0  0  0  0
   15.3060    0.1040   60.8190 C   0  0  0  0  0  0  0  0  0  0  0  0
   17.4460    0.2490   57.0620 C   0  0  0  0  0  0  0  0  0  0  0  0
   16.5870    1.2860   57.4320 C   0  0  0  0  0  0  0  0  0  0  0  0
   15.9040    1.2460   58.6490 C   0  0  0  0  0  0  0  0  0  0  0  0
   16.0700    0.1630   59.5190 C   0  0  0  0  0  0  0  0  0  0  0  0
   16.9250   -0.8800   59.1420 C   0  0  0  0  0  0  0  0  0  0  0  0
   17.6110   -0.8370   57.9220 C   0  0  0  0  0  0  0  0  0  0  0  0
   18.0510    0.4150   55.8480 O   0  0  0  0  0  0  0  0  0  0  0  0
   17.4800   -0.2700   54.7330 C   0  0  0  0  0  0  0  0  0  0  0  0
   15.7370    1.1420   53.5590 C   0  0  0  0  0  0  0  0  0  0  0  0
   15.9850    0.0710   54.6220 C   0  0  0  0  0  0  0  0  0  0  0  0
   15.1510   -1.1730   54.3160 C   0  0  0  0  0  0  0  0  0  0  0  0
   11.3370    1.2620   59.8900 C   0  0  0  0  0  0  0  0  0  0  0  0
   11.3810    0.6060   58.5240 C   0  0  0  0  0  0  0  0  0  0  0  0
   12.3700    0.9690   57.5940 C   0  0  0  0  0  0  0  0  0  0  0  0
   12.4170    0.3610   56.3390 C   0  0  0  0  0  0  0  0  0  0  0  0
   11.4820   -0.6140   56.0130 C   0  0  0  0  0  0  0  0  0  0  0  0
   11.5300   -1.1960   54.8080 F   0  0  0  0  0  0  0  0  0  0  0  0
   10.5010   -0.9940   56.9180 C   0  0  0  0  0  0  0  0  0  0  0  0
   10.4510   -0.3880   58.1750 C   0  0  0  0  0  0  0  0  0  0  0  0
  1 14  1  0
  1  2  1  0
  2  3  2  0
  4  2  1  0
  5  4  1  1
  5 11  1  0
  6  5  1  0
  6  7  1  0
  7  8  1  0
  8 10  1  0
  8  9  1  0
 11 13  1  0
 11 10  1  0
 11 12  1  0
 13 12  1  0
 15 16  1  0
 15 20  2  0
 16 17  2  0
 17 18  1  0
 18 14  1  0
 19 18  2  0
 20 19  1  0
 21 15  1  0
 22 21  1  0
 23 24  1  0
 24 22  1  0
 25 24  1  0
 26  4  1  0
 27 26  1  0
 28 27  1  0
 29 28  2  0
 30 29  1  0
 30 32  2  0
 31 30  1  0
 32 33  1  0
 33 27  2  0
M  END
$$$$
