lig_302
     RDKit          3D

 23 26  0  0  0  0  0  0  0  0999 V2000
   -1.1750    8.2230   16.7310 C   0  0  0  0  0  0  0  0  0  0  0  0
   -0.9430    9.4450   16.2020 C   0  0  0  0  0  0  0  0  0  0  0  0
   -1.9770   10.2000   15.5070 C   0  0  0  0  0  0  0  0  0  0  0  0
   -3.2150    9.6910   15.4130 C   0  0  0  0  0  0  0  0  0  0  0  0
   -3.4760    8.4400   15.9590 N   0  0  0  0  0  0  0  0  0  0  0  0
   -4.6390    7.7590   15.9560 N   0  0  0  0  0  0  0  0  0  0  0  0
   -4.3400    6.6260   16.6140 C   0  0  0  0  0  0  0  0  0  0  0  0
   -3.0260    6.5550   17.0390 N   0  0  0  0  0  0  0  0  0  0  0  0
   -2.5030    7.6840   16.6100 C   0  0  0  0  0  0  0  0  0  0  0  0
   -1.7200   11.5400   14.9230 C   0  0  0  0  0  0  0  0  0  0  0  0
   -1.2220   11.6340   13.8040 O   0  0  0  0  0  0  0  0  0  0  0  0
   -2.0580   12.6230   15.6990 N   0  0  0  0  0  0  0  0  0  0  0  0
   -2.5070   12.6200   17.0860 C   0  0  0  0  0  0  0  0  0  0  0  0
   -2.3110   14.0570   17.5490 C   0  0  0  0  0  0  0  0  0  0  0  0
   -2.5010   14.8590   16.2680 C   0  0  0  0  0  0  0  0  0  0  0  0
   -1.8410   13.9750   15.2190 C   0  0  0  0  0  0  0  0  0  0  0  0
   -5.2980    5.5400   16.8790 C   0  0  0  0  0  0  0  0  0  0  0  0
   -6.2510    5.6760   17.8870 C   0  0  0  0  0  0  0  0  0  0  0  0
   -7.1460    4.6320   18.1160 C   0  0  0  0  0  0  0  0  0  0  0  0
   -7.0680    3.4860   17.3360 C   0  0  0  0  0  0  0  0  0  0  0  0
   -6.0930    3.4270   16.3550 C   0  0  0  0  0  0  0  0  0  0  0  0
   -5.2120    4.4210   16.1100 N   0  0  0  0  0  0  0  0  0  0  0  0
   -0.1920    7.4990   17.3830 N   0  0  0  0  0  0  0  0  0  0  0  0
  1 23  1  0
  2  1  2  0
  3  2  1  0
  4  3  2  0
  4  5  1  0
  5  9  1  0
  6  5  1  0
  6  7  2  0
  7 17  1  0
  7  8  1  0
  9  1  1  0
  9  8  2  0
 10  3  1  0
 10 12  1  0
 11 10  2  0
 12 13  1  0
 13 14  1  0
 15 14  1  0
 16 12  1  0
 16 15  1  0
 17 18  2  0
 18 19  1  0
 20 19  2  0
 21 20  1  0
 22 21  2  0
 22 17  1  0
M  END
$$$$
