lig_096
     RDKit          3D

 36 39  0  0  1  0  0  0  0  0999 V2000
  -26.3320    8.5510    5.6440 C   0  0  0  0  0  0  0  0  0  0  0  0
  -27.6220    8.1650    6.3820 C   0  0  0  0  0  0  0  0  0  0  0  0
  -27.3770    7.4080    7.6920 C   0  0  0  0  0  0  0  0  0  0  0  0
  -26.1630    6.5960    7.6110 N   0  0  0  0  0  0  0  0  0  0  0  0
  -24.9140    7.3180    7.2990 C   0  0  0  0  0  0  0  0  0  0  0  0
  -25.1790    8.6740    6.6430 C   0  0  0  0  0  0  0  0  0  0  0  0
  -25.9990    5.5250    8.5030 C   0  0  0  0  0  0  0  0  0  0  0  0
  -27.0430    4.6040    8.7030 C   0  0  0  0  0  0  0  0  0  0  0  0
  -26.9250    3.5260    9.5880 C   0  0  0  0  0  0  0  0  0  0  0  0
  -25.7500    3.3320   10.3140 C   0  0  0  0  0  0  0  0  0  0  0  0
  -24.7030    4.2420   10.1410 C   0  0  0  0  0  0  0  0  0  0  0  0
  -24.8320    5.3190    9.2520 C   0  0  0  0  0  0  0  0  0  0  0  0
  -25.6140    2.1870   11.2920 C   0  0  0  0  0  0  0  0  0  0  0  0
  -26.3250    0.9250   10.7970 C   0  0  2  0  0  0  0  0  0  0  0  0
  -27.7690    0.5200   11.8480 S   0  0  0  0  0  0  0  0  0  0  0  0
  -27.2770   -1.1390   12.0550 C   0  0  0  0  0  0  0  0  0  0  0  0
  -27.8650   -1.9400   12.7600 O   0  0  0  0  0  0  0  0  0  0  0  0
  -26.1350   -1.3830   11.3750 N   0  0  0  0  0  0  0  0  0  0  0  0
  -25.4490   -0.3120   10.8850 C   0  0  0  0  0  0  0  0  0  0  0  0
  -24.2680   -0.3810   10.5700 O   0  0  0  0  0  0  0  0  0  0  0  0
  -26.4440    9.8070    4.8900 N   0  0  0  0  0  0  0  0  0  0  0  0
  -26.7730   11.0080    5.6880 C   0  0  0  0  0  0  0  0  0  0  0  0
  -28.0940   11.7890    5.4150 C   0  0  1  0  0  0  0  0  0  0  0  0
  -31.4240   10.2270    6.5520 C   0  0  0  0  0  0  0  0  0  0  0  0
  -30.2740   10.4750    5.8010 C   0  0  0  0  0  0  0  0  0  0  0  0
  -29.3440   11.4430    6.2090 C   0  0  0  0  0  0  0  0  0  0  0  0
  -29.6020   12.1530    7.4010 C   0  0  0  0  0  0  0  0  0  0  0  0
  -30.7360   11.8920    8.1720 C   0  0  0  0  0  0  0  0  0  0  0  0
  -31.6350   10.9230    7.7470 C   0  0  0  0  0  0  0  0  0  0  0  0
  -32.3660    9.2030    6.2040 N   0  0  0  0  0  0  0  0  0  0  0  0
  -33.4520    6.9370    7.1050 C   0  0  0  0  0  0  0  0  0  0  0  0
  -31.9500    7.5850    6.4060 S   0  0  0  0  0  0  0  0  0  0  0  0
  -30.8860    7.4390    7.3730 O   0  0  0  0  0  0  0  0  0  0  0  0
  -31.8320    7.0360    5.0700 O   0  0  0  0  0  0  0  0  0  0  0  0
  -32.7530   10.6270    8.4840 O   0  0  0  0  0  0  0  0  0  0  0  0
  -27.8410   13.1980    5.4880 O   0  0  0  0  0  0  0  0  0  0  0  0
  1 21  1  0
  1  2  1  0
  1  6  1  0
  2  3  1  0
  4  3  1  0
  4  7  1  0
  5  4  1  0
  6  5  1  0
  7  8  1  0
  7 12  2  0
  8  9  2  0
  9 10  1  0
 10 13  1  0
 11 10  2  0
 12 11  1  0
 14 19  1  0
 14 13  1  1
 14 15  1  0
 15 16  1  0
 16 17  2  0
 18 16  1  0
 19 18  1  0
 20 19  2  0
 21 22  1  0
 23 36  1  1
 23 22  1  0
 23 26  1  0
 24 29  2  0
 25 26  2  0
 25 24  1  0
 26 27  1  0
 27 28  2  0
 29 28  1  0
 29 35  1  0
 30 32  1  0
 30 24  1  0
 32 31  1  0
 32 33  2  0
 34 32  2  0
M  END
$$$$
