lig_000
     RDKit          3D

 30 33  0  0  0  0  0  0  0  0999 V2000
    5.2940    2.5100  -12.8750 C   0  0  0  0  0  0  0  0  0  0  0  0
    6.4510    3.2800  -13.2590 N   0  0  0  0  0  0  0  0  0  0  0  0
    7.3690    2.7980  -14.2430 C   0  0  0  0  0  0  0  0  0  0  0  0
    8.3060    3.9000  -14.3960 N   0  0  0  0  0  0  0  0  0  0  0  0
    8.3240    4.7220  -13.1390 C   0  0  0  0  0  0  0  0  0  0  0  0
    9.4610    4.3300  -12.1850 C   0  0  0  0  0  0  0  0  0  0  0  0
    9.5500    5.2680  -10.9800 C   0  0  0  0  0  0  0  0  0  0  0  0
    9.6520    6.6620  -11.4200 N   0  0  0  0  0  0  0  0  0  0  0  0
    8.4750    7.0760  -12.1880 C   0  0  0  0  0  0  0  0  0  0  0  0
    8.3250    6.2220  -13.4490 C   0  0  0  0  0  0  0  0  0  0  0  0
    6.9680    4.3190  -12.5060 C   0  0  0  0  0  0  0  0  0  0  0  0
    6.4430    4.7970  -11.5110 O   0  0  0  0  0  0  0  0  0  0  0  0
    9.4720    3.6690  -15.1130 C   0  0  0  0  0  0  0  0  0  0  0  0
    9.9430    4.6560  -15.9890 C   0  0  0  0  0  0  0  0  0  0  0  0
   11.1100    4.4740  -16.7380 C   0  0  0  0  0  0  0  0  0  0  0  0
   11.8300    3.2910  -16.6260 C   0  0  0  0  0  0  0  0  0  0  0  0
   11.3820    2.2930  -15.7650 C   0  0  0  0  0  0  0  0  0  0  0  0
   10.2130    2.4810  -15.0200 C   0  0  0  0  0  0  0  0  0  0  0  0
    9.9720    7.5780  -10.3130 C   0  0  0  0  0  0  0  0  0  0  0  0
   10.5280    6.9400   -9.0290 C   0  0  0  0  0  0  0  0  0  0  0  0
   11.2040    7.9720   -8.1200 C   0  0  0  0  0  0  0  0  0  0  0  0
   10.4270    8.2550   -6.8450 C   0  0  0  0  0  0  0  0  0  0  0  0
    9.2450    8.5950   -6.8550 O   0  0  0  0  0  0  0  0  0  0  0  0
   11.1320    8.1270   -5.5320 C   0  0  0  0  0  0  0  0  0  0  0  0
   11.1220    6.9390   -4.7860 C   0  0  0  0  0  0  0  0  0  0  0  0
   11.7980    6.8730   -3.5640 C   0  0  0  0  0  0  0  0  0  0  0  0
   12.4830    7.9870   -3.0930 C   0  0  0  0  0  0  0  0  0  0  0  0
   13.1300    7.9160   -1.9220 F   0  0  0  0  0  0  0  0  0  0  0  0
   12.5080    9.1690   -3.8210 C   0  0  0  0  0  0  0  0  0  0  0  0
   11.8340    9.2400   -5.0410 C   0  0  0  0  0  0  0  0  0  0  0  0
  2  1  1  0
  2 11  1  0
  3  2  1  0
  4  3  1  0
  4  5  1  0
  5 11  1  0
  5  6  1  0
  6  7  1  0
  8  7  1  0
  8 19  1  0
  9  8  1  0
 10  5  1  0
 10  9  1  0
 11 12  2  0
 13 18  1  0
 13  4  1  0
 14 13  2  0
 15 16  2  0
 15 14  1  0
 16 17  1  0
 17 18  2  0
 19 20  1  0
 20 21  1  0
 21 22  1  0
 22 24  1  0
 23 22  2  0
 24 30  2  0
 24 25  1  0
 25 26  2  0
 26 27  1  0
 27 28  1  0
 29 27  2  0
 30 29  1  0
M  END
$$$$
