lig_040
     RDKit          3D

 35 39  0  0  0  0  0  0  0  0999 V2000
   -0.7720    8.0050   17.1540 C   0  0  0  0  0  0  0  0  0  0  0  0
   -1.8380    7.1890   16.9020 N   0  0  0  0  0  0  0  0  0  0  0  0
   -1.7510    5.9190   17.3830 C   0  0  0  0  0  0  0  0  0  0  0  0
   -0.6080    5.4790   18.0760 C   0  0  0  0  0  0  0  0  0  0  0  0
    0.4340    6.3270   18.3330 N   0  0  0  0  0  0  0  0  0  0  0  0
    0.3610    7.5910   17.8690 C   0  0  0  0  0  0  0  0  0  0  0  0
    1.4620    8.4160   18.1540 N   0  0  0  0  0  0  0  0  0  0  0  0
   -2.9560    5.1100   17.1220 C   0  0  0  0  0  0  0  0  0  0  0  0
   -2.9200    4.0610   16.1920 C   0  0  0  0  0  0  0  0  0  0  0  0
   -4.0560    3.2840   15.9340 C   0  0  0  0  0  0  0  0  0  0  0  0
   -5.2620    3.5210   16.5750 C   0  0  0  0  0  0  0  0  0  0  0  0
   -6.3240    2.7440   16.2990 N   0  0  0  0  0  0  0  0  0  0  0  0
   -7.4840    3.0060   16.9400 C   0  0  0  0  0  0  0  0  0  0  0  0
   -7.6420    4.0230   17.8620 C   0  0  0  0  0  0  0  0  0  0  0  0
   -6.5420    4.8230   18.1440 C   0  0  0  0  0  0  0  0  0  0  0  0
   -5.3220    4.5840   17.5000 C   0  0  0  0  0  0  0  0  0  0  0  0
   -4.1810    5.3680   17.7570 C   0  0  0  0  0  0  0  0  0  0  0  0
   -0.3940    4.1080   18.5760 C   0  0  0  0  0  0  0  0  0  0  0  0
   -1.4650    3.2290   18.8210 C   0  0  0  0  0  0  0  0  0  0  0  0
   -1.2430    1.9380   19.3080 C   0  0  0  0  0  0  0  0  0  0  0  0
    0.0560    1.4960   19.5450 C   0  0  0  0  0  0  0  0  0  0  0  0
    1.1330    2.3390   19.2880 C   0  0  0  0  0  0  0  0  0  0  0  0
    0.9080    3.6300   18.8040 C   0  0  0  0  0  0  0  0  0  0  0  0
   -2.1900    9.8460   16.4910 N   0  0  0  0  0  0  0  0  0  0  0  0
   -0.8870    9.3890   16.5890 C   0  0  0  0  0  0  0  0  0  0  0  0
    0.1010   10.0210   16.2360 O   0  0  0  0  0  0  0  0  0  0  0  0
   -4.1250   10.8940   15.3360 C   0  0  0  0  0  0  0  0  0  0  0  0
   -2.6040   10.9390   15.5950 C   0  0  0  0  0  0  0  0  0  0  0  0
   -1.9200   10.7030   14.2280 C   0  0  0  0  0  0  0  0  0  0  0  0
   -2.0730   12.2730   16.1510 C   0  0  0  0  0  0  0  0  0  0  0  0
   -2.6760   12.9480   17.2120 C   0  0  0  0  0  0  0  0  0  0  0  0
   -2.1230   14.1440   17.6640 C   0  0  0  0  0  0  0  0  0  0  0  0
   -0.9810   14.6450   17.0540 C   0  0  0  0  0  0  0  0  0  0  0  0
   -0.4330   13.9230   16.0110 C   0  0  0  0  0  0  0  0  0  0  0  0
   -0.9460   12.7610   15.5510 N   0  0  0  0  0  0  0  0  0  0  0  0
  1  6  1  0
  2  1  2  0
  2  3  1  0
  3  4  2  0
  4  5  1  0
  4 18  1  0
  6  7  1  0
  6  5  2  0
  8  3  1  0
  8 17  2  0
  9  8  1  0
 10  9  2  0
 10 11  1  0
 11 16  1  0
 12 11  2  0
 12 13  1  0
 13 14  2  0
 14 15  1  0
 16 17  1  0
 16 15  2  0
 18 23  1  0
 18 19  2  0
 19 20  1  0
 20 21  2  0
 22 21  1  0
 23 22  2  0
 24 25  1  0
 25  1  1  0
 26 25  2  0
 27 28  1  0
 28 30  1  0
 28 24  1  0
 29 28  1  0
 30 31  2  0
 31 32  1  0
 33 32  2  0
 34 33  1  0
 35 34  2  0
 35 30  1  0
M  END
$$$$
