lig_014
     RDKit          3D

 24 26  0  0  1  0  0  0  0  0999 V2000
  -13.1380  -14.4780   38.5500 C   0  0  1  0  0  0  0  0  0  0  0  0
  -13.7020  -12.3260   39.5730 O   0  0  0  0  0  0  0  0  0  0  0  0
  -12.9320  -12.9310   38.8160 C   0  0  0  0  0  0  0  0  0  0  0  0
  -11.9070  -12.2400   38.1720 N   0  0  0  0  0  0  0  0  0  0  0  0
  -10.8680  -12.8110   37.3170 C   0  0  0  0  0  0  0  0  0  0  0  0
   -9.5370  -13.0660   38.0250 C   0  0  0  0  0  0  0  0  0  0  0  0
   -8.9570  -11.8630   38.7710 C   0  0  0  0  0  0  0  0  0  0  0  0
   -9.6940  -11.5910   40.0010 N   0  0  0  0  0  0  0  0  0  0  0  0
  -10.8510  -10.6960   39.8350 C   0  0  0  0  0  0  0  0  0  0  0  0
  -11.6930  -10.8460   38.5540 C   0  0  0  0  0  0  0  0  0  0  0  0
  -12.5290  -14.8820   37.1690 C   0  0  2  0  0  0  0  0  0  0  0  0
  -13.3220  -14.4030   35.9330 C   0  0  0  0  0  0  0  0  0  0  0  0
  -12.8790  -15.3550   34.8340 C   0  0  0  0  0  0  0  0  0  0  0  0
  -12.9010  -16.6830   35.5510 C   0  0  0  0  0  0  0  0  0  0  0  0
  -12.1690  -17.6140   34.9110 F   0  0  0  0  0  0  0  0  0  0  0  0
  -14.1760  -17.1410   35.6120 F   0  0  0  0  0  0  0  0  0  0  0  0
  -12.3860  -16.4120   36.9530 C   0  0  0  0  0  0  0  0  0  0  0  0
  -12.4270  -15.2890   39.6530 C   0  0  0  0  0  0  0  0  0  0  0  0
  -11.0310  -15.2340   39.8220 C   0  0  0  0  0  0  0  0  0  0  0  0
  -10.3990  -15.9590   40.8350 C   0  0  0  0  0  0  0  0  0  0  0  0
  -11.1510  -16.7480   41.7020 C   0  0  0  0  0  0  0  0  0  0  0  0
  -12.5340  -16.8110   41.5580 C   0  0  0  0  0  0  0  0  0  0  0  0
  -13.1680  -16.0860   40.5460 C   0  0  0  0  0  0  0  0  0  0  0  0
  -14.5290  -14.8110   38.5120 O   0  0  0  0  0  0  0  0  0  0  0  0
  1 24  1  6
  1  3  1  0
  1 18  1  0
  3  2  2  0
  4 10  1  0
  4  3  1  0
  5  6  1  0
  5  4  1  0
  6  7  1  0
  7  8  1  0
  9  8  1  0
 10  9  1  0
 11  1  1  0
 11 12  1  6
 13 14  1  0
 13 12  1  0
 14 16  1  0
 14 17  1  0
 15 14  1  0
 17 11  1  0
 18 19  2  0
 18 23  1  0
 19 20  1  0
 20 21  2  0
 22 21  1  0
 23 22  2  0
M  END
$$$$
