lig_251
     RDKit          3D

 33 37  0  0  0  0  0  0  0  0999 V2000
   -1.6530   10.6180   16.2580 C   0  0  0  0  0  0  0  0  0  0  0  0
   -0.9240    9.5720   16.6990 C   0  0  0  0  0  0  0  0  0  0  0  0
   -1.5050    8.3450   16.7440 N   0  0  0  0  0  0  0  0  0  0  0  0
   -1.0230    7.1300   17.1690 C   0  0  0  0  0  0  0  0  0  0  0  0
    0.1000    6.9150   17.6050 O   0  0  0  0  0  0  0  0  0  0  0  0
   -2.1140    6.2330   16.9920 N   0  0  0  0  0  0  0  0  0  0  0  0
   -3.2180    6.9110   16.4750 N   0  0  0  0  0  0  0  0  0  0  0  0
   -2.7740    8.1230   16.3570 C   0  0  0  0  0  0  0  0  0  0  0  0
   -3.5310    9.3220   15.8450 C   0  0  0  0  0  0  0  0  0  0  0  0
   -4.8240    9.1600   15.4200 N   0  0  0  0  0  0  0  0  0  0  0  0
   -2.9680   10.5000   15.8210 N   0  0  0  0  0  0  0  0  0  0  0  0
    0.1100   14.5480   16.1140 C   0  0  0  0  0  0  0  0  0  0  0  0
   -1.0850   14.3210   16.7990 C   0  0  0  0  0  0  0  0  0  0  0  0
   -1.6510   13.0430   16.8420 C   0  0  0  0  0  0  0  0  0  0  0  0
   -1.0360   11.9650   16.1910 C   0  0  0  0  0  0  0  0  0  0  0  0
    0.1730   12.1990   15.5190 C   0  0  0  0  0  0  0  0  0  0  0  0
    0.7400   13.4810   15.4770 C   0  0  0  0  0  0  0  0  0  0  0  0
    0.5520   15.8410   16.1500 O   0  0  0  0  0  0  0  0  0  0  0  0
    1.9640   16.0500   16.0430 C   0  0  0  0  0  0  0  0  0  0  0  0
    2.2170   16.9830   14.8470 C   0  0  0  0  0  0  0  0  0  0  0  0
    2.8850   17.3190   10.0450 C   0  0  0  0  0  0  0  0  0  0  0  0
    2.2430   17.9390   11.2040 N   0  0  0  0  0  0  0  0  0  0  0  0
    1.2570   17.0300   11.8230 C   0  0  0  0  0  0  0  0  0  0  0  0
    1.8650   15.8870   12.6730 C   0  0  0  0  0  0  0  0  0  0  0  0
    2.8470   16.3130   13.6930 N   0  0  0  0  0  0  0  0  0  0  0  0
    3.8410   17.2020   13.0490 C   0  0  0  0  0  0  0  0  0  0  0  0
    3.2370   18.3560   12.2110 C   0  0  0  0  0  0  0  0  0  0  0  0
   -2.1930    4.8510   17.2660 C   0  0  0  0  0  0  0  0  0  0  0  0
   -2.8190    3.9590   16.3850 C   0  0  0  0  0  0  0  0  0  0  0  0
   -2.8840    2.5920   16.6760 C   0  0  0  0  0  0  0  0  0  0  0  0
   -2.3260    2.0970   17.8520 C   0  0  0  0  0  0  0  0  0  0  0  0
   -1.7000    2.9690   18.7380 C   0  0  0  0  0  0  0  0  0  0  0  0
   -1.6340    4.3340   18.4460 C   0  0  0  0  0  0  0  0  0  0  0  0
  1  2  1  0
  2  3  1  0
  3  4  1  0
  4  5  2  0
  6  4  1  0
  6 28  1  0
  7  6  1  0
  8  7  1  0
  8  3  1  0
  9  8  2  0
 10  9  1  0
 11  9  1  0
 11  1  2  0
 12 18  1  0
 12 13  1  0
 13 14  2  0
 15  1  1  0
 15 14  1  0
 16 15  2  0
 17 16  1  0
 17 12  2  0
 19 18  1  0
 20 19  1  0
 21 22  1  0
 22 23  1  0
 22 27  1  0
 23 24  1  0
 24 25  1  0
 25 20  1  0
 26 25  1  0
 27 26  1  0
 28 33  1  0
 29 30  1  0
 29 28  2  0
 30 31  2  0
 31 32  1  0
 33 32  2  0
M  END
$$$$
