lig_023
     RDKit          3D

 24 27  0  0  0  0  0  0  0  0999 V2000
   10.0380    8.0210   -7.2020 C   0  0  0  0  0  0  0  0  0  0  0  0
   10.4470    9.0920   -8.2360 C   0  0  0  0  0  0  0  0  0  0  0  0
   11.4780    8.5520   -9.2250 C   0  0  0  0  0  0  0  0  0  0  0  0
   10.9970    7.4020  -10.0000 N   0  0  0  0  0  0  0  0  0  0  0  0
    9.9270    6.6470   -9.3220 C   0  0  0  0  0  0  0  0  0  0  0  0
   10.1280    6.6070   -7.8080 C   0  0  0  0  0  0  0  0  0  0  0  0
   10.7860    8.0480   -5.8640 C   0  0  0  0  0  0  0  0  0  0  0  0
   11.1690    9.2900   -5.3160 C   0  0  0  0  0  0  0  0  0  0  0  0
   11.8400    9.3710   -4.0930 C   0  0  0  0  0  0  0  0  0  0  0  0
   12.1320    8.2080   -3.3900 C   0  0  0  0  0  0  0  0  0  0  0  0
   12.9580    8.3000   -1.8840 Cl  0  0  0  0  0  0  0  0  0  0  0  0
   11.7550    6.9700   -3.9010 C   0  0  0  0  0  0  0  0  0  0  0  0
   11.0840    6.8910   -5.1260 C   0  0  0  0  0  0  0  0  0  0  0  0
    8.6500    8.2910   -6.9140 O   0  0  0  0  0  0  0  0  0  0  0  0
   10.6080    7.7940  -11.3660 C   0  0  0  0  0  0  0  0  0  0  0  0
   10.6930    6.6330  -12.3110 C   0  0  0  0  0  0  0  0  0  0  0  0
   11.8310    6.1800  -12.9560 C   0  0  0  0  0  0  0  0  0  0  0  0
   11.4950    5.0910  -13.7140 N   0  0  0  0  0  0  0  0  0  0  0  0
   10.1560    4.8100  -13.5750 C   0  0  0  0  0  0  0  0  0  0  0  0
    9.3840    3.7950  -14.1530 C   0  0  0  0  0  0  0  0  0  0  0  0
    8.0230    3.7520  -13.8310 C   0  0  0  0  0  0  0  0  0  0  0  0
    7.4610    4.6910  -12.9690 C   0  0  0  0  0  0  0  0  0  0  0  0
    8.2490    5.6990  -12.4020 C   0  0  0  0  0  0  0  0  0  0  0  0
    9.6250    5.7620  -12.7050 C   0  0  0  0  0  0  0  0  0  0  0  0
  1 14  1  0
  1  7  1  0
  2  1  1  0
  3  2  1  0
  4  5  1  0
  4  3  1  0
  5  6  1  0
  6  1  1  0
  7  8  1  0
  7 13  2  0
  8  9  2  0
  9 10  1  0
 10 11  1  0
 12 10  2  0
 13 12  1  0
 15  4  1  0
 16 15  1  0
 17 16  2  0
 18 19  1  0
 18 17  1  0
 19 24  1  0
 20 21  1  0
 20 19  2  0
 21 22  2  0
 22 23  1  0
 24 23  2  0
 24 16  1  0
M  END
$$$$
