lig_219
     RDKit          3D

 22 25  0  0  0  0  0  0  0  0999 V2000
   -0.9690    3.5340   19.4190 N   0  0  0  0  0  0  0  0  0  0  0  0
   -1.7340    4.3070   18.5850 C   0  0  0  0  0  0  0  0  0  0  0  0
   -2.9880    4.0160   18.4000 N   0  0  0  0  0  0  0  0  0  0  0  0
   -3.7440    4.8150   17.5510 C   0  0  0  0  0  0  0  0  0  0  0  0
   -3.2780    5.9350   16.9250 C   0  0  0  0  0  0  0  0  0  0  0  0
   -1.8950    6.2460   17.1230 C   0  0  0  0  0  0  0  0  0  0  0  0
   -1.1360    7.2170   16.6480 N   0  0  0  0  0  0  0  0  0  0  0  0
    0.1130    7.0010   17.1670 C   0  0  0  0  0  0  0  0  0  0  0  0
    0.1210    5.8860   17.9720 C   0  0  0  0  0  0  0  0  0  0  0  0
   -1.1700    5.4130   17.9440 N   0  0  0  0  0  0  0  0  0  0  0  0
   -5.1420    4.3390   17.3910 C   0  0  0  0  0  0  0  0  0  0  0  0
   -5.4610    3.2710   16.5480 C   0  0  0  0  0  0  0  0  0  0  0  0
   -6.7860    2.8790   16.4520 C   0  0  0  0  0  0  0  0  0  0  0  0
   -7.7940    3.4590   17.1390 N   0  0  0  0  0  0  0  0  0  0  0  0
   -7.4590    4.4710   17.9680 C   0  0  0  0  0  0  0  0  0  0  0  0
   -6.1660    4.9380   18.1280 C   0  0  0  0  0  0  0  0  0  0  0  0
   -4.1350    6.7900   16.0610 C   0  0  0  0  0  0  0  0  0  0  0  0
   -4.1650    8.1730   16.2580 C   0  0  0  0  0  0  0  0  0  0  0  0
   -4.9760    8.9430   15.4410 C   0  0  0  0  0  0  0  0  0  0  0  0
   -5.7440    8.4370   14.4540 N   0  0  0  0  0  0  0  0  0  0  0  0
   -5.7160    7.0970   14.2920 C   0  0  0  0  0  0  0  0  0  0  0  0
   -4.9480    6.2410   15.0640 C   0  0  0  0  0  0  0  0  0  0  0  0
  2  1  1  0
  3  2  2  0
  4  3  1  0
  5  6  1  0
  5  4  2  0
  6 10  1  0
  7  6  2  0
  7  8  1  0
  8  9  2  0
 10  9  1  0
 10  2  1  0
 11  4  1  0
 11 16  2  0
 12 11  1  0
 13 12  2  0
 13 14  1  0
 14 15  2  0
 15 16  1  0
 17 18  1  0
 17  5  1  0
 19 18  2  0
 20 19  1  0
 21 20  2  0
 21 22  1  0
 22 17  2  0
M  END
$$$$
