lig_020
     RDKit          3D

 25 27  0  0  0  0  0  0  0  0999 V2000
   14.5640    1.3880   53.3430 C   0  0  0  0  0  0  0  0  0  0  0  0
   15.9470    1.2230   53.6170 C   0  0  0  0  0  0  0  0  0  0  0  0
   16.0210    0.2780   54.6160 C   0  0  0  0  0  0  0  0  0  0  0  0
   14.7170   -0.0800   54.8670 N   0  0  0  0  0  0  0  0  0  0  0  0
   13.8140    0.6170   54.1420 N   0  0  0  0  0  0  0  0  0  0  0  0
   13.9340    2.3100   52.3410 C   0  0  0  0  0  0  0  0  0  0  0  0
   14.5160    4.3810   51.2640 C   0  0  0  0  0  0  0  0  0  0  0  0
   14.9790    3.0500   51.6240 N   0  0  0  0  0  0  0  0  0  0  0  0
   17.0190   -0.2920   55.2960 O   0  0  0  0  0  0  0  0  0  0  0  0
   17.8850    0.6000   56.0050 C   0  0  0  0  0  0  0  0  0  0  0  0
   18.9720   -0.1870   56.6910 C   0  0  0  0  0  0  0  0  0  0  0  0
   20.2240   -0.4000   56.0940 C   0  0  0  0  0  0  0  0  0  0  0  0
   21.1990   -1.1610   56.7430 C   0  0  0  0  0  0  0  0  0  0  0  0
   20.9320   -1.7310   57.9870 C   0  0  0  0  0  0  0  0  0  0  0  0
   19.6860   -1.5430   58.5820 C   0  0  0  0  0  0  0  0  0  0  0  0
   18.7190   -0.7820   57.9290 C   0  0  0  0  0  0  0  0  0  0  0  0
   17.5210   -0.6320   58.5120 F   0  0  0  0  0  0  0  0  0  0  0  0
   14.2610   -1.0670   55.8350 C   0  0  0  0  0  0  0  0  0  0  0  0
   13.6080   -0.4140   57.0300 C   0  0  0  0  0  0  0  0  0  0  0  0
   12.2100   -0.4150   57.1710 C   0  0  0  0  0  0  0  0  0  0  0  0
   11.6120    0.2000   58.2720 C   0  0  0  0  0  0  0  0  0  0  0  0
   12.4070    0.8180   59.2300 C   0  0  0  0  0  0  0  0  0  0  0  0
   11.8300    1.4070   60.2850 F   0  0  0  0  0  0  0  0  0  0  0  0
   13.7900    0.8380   59.1060 C   0  0  0  0  0  0  0  0  0  0  0  0
   14.3920    0.2240   58.0060 C   0  0  0  0  0  0  0  0  0  0  0  0
  1  2  1  0
  1  5  2  0
  2  3  2  0
  3  4  1  0
  3  9  1  0
  4 18  1  0
  5  4  1  0
  6  1  1  0
  7  8  1  0
  8  6  1  0
  9 10  1  0
 10 11  1  0
 11 16  1  0
 12 11  2  0
 12 13  1  0
 13 14  2  0
 14 15  1  0
 16 17  1  0
 16 15  2  0
 18 19  1  0
 19 20  1  0
 19 25  2  0
 20 21  2  0
 21 22  1  0
 22 23  1  0
 24 22  2  0
 25 24  1  0
M  END
$$$$
