lig_003
     RDKit          3D

 20 23  0  0  1  0  0  0  0  0999 V2000
   14.4960   -0.3670   61.2300 C   0  0  0  0  0  0  0  0  0  0  0  0
   15.0270    0.2580   60.0300 N   0  0  0  0  0  0  0  0  0  0  0  0
   14.3250   -0.1520   58.8010 C   0  0  0  0  0  0  0  0  0  0  0  0
   15.4160   -0.4140   57.7400 C   0  0  1  0  0  0  0  0  0  0  0  0
   15.0430   -0.0830   56.3100 C   0  0  0  0  0  0  0  0  0  0  0  0
   13.7940   -0.5280   55.8270 C   0  0  0  0  0  0  0  0  0  0  0  0
   13.3830   -0.2720   54.5160 C   0  0  0  0  0  0  0  0  0  0  0  0
   14.2160    0.4300   53.6540 C   0  0  0  0  0  0  0  0  0  0  0  0
   15.4630    0.8580   54.1000 C   0  0  0  0  0  0  0  0  0  0  0  0
   15.8900    0.5840   55.4080 C   0  0  0  0  0  0  0  0  0  0  0  0
   17.1370    1.0920   55.7050 O   0  0  0  0  0  0  0  0  0  0  0  0
   18.0390    0.2400   56.2990 C   0  0  0  0  0  0  0  0  0  0  0  0
   19.1680   -0.1220   55.5630 C   0  0  0  0  0  0  0  0  0  0  0  0
   20.1600   -0.8970   56.1610 C   0  0  0  0  0  0  0  0  0  0  0  0
   20.0230   -1.2820   57.4940 C   0  0  0  0  0  0  0  0  0  0  0  0
   21.2520   -2.2320   58.2350 Cl  0  0  0  0  0  0  0  0  0  0  0  0
   18.9020   -0.9020   58.2370 C   0  0  0  0  0  0  0  0  0  0  0  0
   17.8920   -0.1340   57.6440 C   0  0  0  0  0  0  0  0  0  0  0  0
   16.6340    0.3040   58.3410 C   0  0  2  0  0  0  0  0  0  0  0  0
   16.4530   -0.0180   59.8240 C   0  0  0  0  0  0  0  0  0  0  0  0
  2  1  1  0
  3  2  1  0
  4 19  1  0
  4  3  1  1
  5  4  1  0
  6  5  2  0
  7  6  1  0
  8  9  1  0
  8  7  2  0
  9 10  2  0
 10 11  1  0
 10  5  1  0
 11 12  1  0
 12 18  2  0
 13 14  2  0
 13 12  1  0
 14 15  1  0
 15 16  1  0
 15 17  2  0
 18 17  1  0
 18 19  1  0
 19 20  1  1
 20  2  1  0
M  END
$$$$
