lig_084
     RDKit          3D

 29 32  0  0  0  0  0  0  0  0999 V2000
   23.8430   13.4050    9.6890 F   0  0  0  0  0  0  0  0  0  0  0  0
   23.7250   14.0570    8.5190 C   0  0  0  0  0  0  0  0  0  0  0  0
   24.2310   13.4340    7.3810 C   0  0  0  0  0  0  0  0  0  0  0  0
   24.1310   14.0690    6.1530 C   0  0  0  0  0  0  0  0  0  0  0  0
   23.5250   15.3230    6.0860 C   0  0  0  0  0  0  0  0  0  0  0  0
   23.0090   15.9600    7.2410 C   0  0  0  0  0  0  0  0  0  0  0  0
   23.1120   15.3110    8.4870 C   0  0  0  0  0  0  0  0  0  0  0  0
   22.6430   15.8620    9.6180 N   0  0  0  0  0  0  0  0  0  0  0  0
   22.0590   17.0720    9.5470 C   0  0  0  0  0  0  0  0  0  0  0  0
   21.9070   17.7990    8.3630 C   0  0  0  0  0  0  0  0  0  0  0  0
   21.2940   19.0690    8.2950 C   0  0  0  0  0  0  0  0  0  0  0  0
   21.1810   19.7260    7.0800 C   0  0  0  0  0  0  0  0  0  0  0  0
   21.6870   19.0940    5.9660 C   0  0  0  0  0  0  0  0  0  0  0  0
   22.2800   17.8800    5.9970 N   0  0  0  0  0  0  0  0  0  0  0  0
   22.3970   17.2250    7.1790 C   0  0  0  0  0  0  0  0  0  0  0  0
   21.5750   17.6420   10.7110 O   0  0  0  0  0  0  0  0  0  0  0  0
   20.4840   16.9230   11.2960 C   0  0  0  0  0  0  0  0  0  0  0  0
   19.4190   17.9350   11.7470 C   0  0  0  0  0  0  0  0  0  0  0  0
   20.0240   19.1080   12.5410 C   0  0  0  0  0  0  0  0  0  0  0  0
   20.2580   20.3280   11.6520 C   0  0  0  0  0  0  0  0  0  0  0  0
   19.0290   20.8450   11.0230 N   0  0  0  0  0  0  0  0  0  0  0  0
   18.0060   19.8080   10.8060 C   0  0  0  0  0  0  0  0  0  0  0  0
   18.6190   18.4360   10.5340 C   0  0  0  0  0  0  0  0  0  0  0  0
   18.5010   22.0170   11.7450 C   0  0  0  0  0  0  0  0  0  0  0  0
   18.5550   23.2990   10.9160 C   0  0  0  0  0  0  0  0  0  0  0  0
   17.2850   23.4600   10.1170 C   0  0  0  0  0  0  0  0  0  0  0  0
   17.2750   22.6450    9.0410 F   0  0  0  0  0  0  0  0  0  0  0  0
   17.1630   24.7290    9.6670 F   0  0  0  0  0  0  0  0  0  0  0  0
   16.1900   23.1830   10.8580 F   0  0  0  0  0  0  0  0  0  0  0  0
  2  1  1  0
  3  2  1  0
  4  3  2  0
  5  4  1  0
  5  6  2  0
  6  7  1  0
  7  2  2  0
  7  8  1  0
  9  8  2  0
  9 16  1  0
 10  9  1  0
 11 10  2  0
 12 11  1  0
 13 14  1  0
 13 12  2  0
 14 15  2  0
 15  6  1  0
 15 10  1  0
 16 17  1  0
 17 18  1  0
 18 19  1  0
 20 19  1  0
 21 20  1  0
 21 24  1  0
 22 21  1  0
 23 22  1  0
 23 18  1  0
 25 24  1  0
 26 29  1  0
 26 25  1  0
 27 26  1  0
 28 26  1  0
M  END
$$$$
