lig_424
     RDKit          3D

 25 28  0  0  1  0  0  0  0  0999 V2000
   -2.2000    9.8910   15.7330 N   0  0  0  0  0  0  0  0  0  0  0  0
   -0.9410    9.4850   16.0910 C   0  0  0  0  0  0  0  0  0  0  0  0
   -0.9340    8.2560   16.5650 N   0  0  0  0  0  0  0  0  0  0  0  0
   -2.2490    7.8430   16.4960 C   0  0  0  0  0  0  0  0  0  0  0  0
   -2.8760    6.6300   16.8430 C   0  0  0  0  0  0  0  0  0  0  0  0
   -4.2130    6.5300   16.6210 N   0  0  0  0  0  0  0  0  0  0  0  0
   -4.8710    7.5880   16.1040 C   0  0  0  0  0  0  0  0  0  0  0  0
   -4.3770    8.7960   15.7510 N   0  0  0  0  0  0  0  0  0  0  0  0
   -3.0500    8.8430   15.9700 C   0  0  0  0  0  0  0  0  0  0  0  0
   -1.4840   13.2340   14.9280 C   0  0  1  0  0  0  0  0  0  0  0  0
   -1.4090   11.8170   14.6130 O   0  0  0  0  0  0  0  0  0  0  0  0
   -2.5820   11.1690   15.1580 C   0  0  2  0  0  0  0  0  0  0  0  0
   -3.1840   12.1450   16.1790 C   0  0  1  0  0  0  0  0  0  0  0  0
   -2.8550   13.4810   15.5420 C   0  0  2  0  0  0  0  0  0  0  0  0
   -4.5970   12.0290   16.3550 O   0  0  0  0  0  0  0  0  0  0  0  0
   -3.8130   13.7500   14.5080 O   0  0  0  0  0  0  0  0  0  0  0  0
   -0.3380   13.5500   15.8910 C   0  0  0  0  0  0  0  0  0  0  0  0
    0.7140   12.6020   15.7240 O   0  0  0  0  0  0  0  0  0  0  0  0
   -2.1510    5.5740   17.3980 N   0  0  0  0  0  0  0  0  0  0  0  0
   -2.9170    4.4160   17.8600 C   0  0  1  0  0  0  0  0  0  0  0  0
   -3.1010    3.3920   16.7240 C   0  0  0  0  0  0  0  0  0  0  0  0
   -2.6190    2.0570   17.2780 C   0  0  0  0  0  0  0  0  0  0  0  0
   -1.5320    2.4480   18.2670 C   0  0  0  0  0  0  0  0  0  0  0  0
   -2.1240    3.6670   18.9640 C   0  0  2  0  0  0  0  0  0  0  0  0
   -3.0100    3.2320   19.9980 O   0  0  0  0  0  0  0  0  0  0  0  0
  1  9  1  0
  1  2  1  0
  2  3  2  0
  4  3  1  0
  4  5  2  0
  5 19  1  0
  6  5  1  0
  7  6  2  0
  8  9  2  0
  8  7  1  0
  9  4  1  0
 10 14  1  0
 10 17  1  1
 11 10  1  0
 11 12  1  0
 12  1  1  1
 12 13  1  0
 13 15  1  6
 14 16  1  6
 14 13  1  0
 18 17  1  0
 20 19  1  6
 20 24  1  0
 21 22  1  0
 21 20  1  0
 22 23  1  0
 23 24  1  0
 24 25  1  1
M  END
$$$$
