lig_277
     RDKit          3D

 30 33  0  0  0  0  0  0  0  0999 V2000
    0.0070  -16.0910   11.9440 C   0  0  0  0  0  0  0  0  0  0  0  0
   -0.9470  -16.3070   12.6850 O   0  0  0  0  0  0  0  0  0  0  0  0
    1.1360  -16.8730   11.9330 N   0  0  0  0  0  0  0  0  0  0  0  0
    0.4210  -14.9360    9.6940 C   0  0  0  0  0  0  0  0  0  0  0  0
   -0.0100  -14.9090   11.0310 C   0  0  0  0  0  0  0  0  0  0  0  0
   -0.4840  -13.7080   11.5640 C   0  0  0  0  0  0  0  0  0  0  0  0
   -0.4910  -12.5440   10.7930 C   0  0  0  0  0  0  0  0  0  0  0  0
   -1.0980  -11.1120   11.5580 Cl  0  0  0  0  0  0  0  0  0  0  0  0
   -0.0070  -12.5360    9.4610 C   0  0  0  0  0  0  0  0  0  0  0  0
    0.0310  -11.3740    8.6510 C   0  0  0  0  0  0  0  0  0  0  0  0
    0.5270  -11.4010    7.3480 C   0  0  0  0  0  0  0  0  0  0  0  0
    1.0020  -12.5890    6.8170 C   0  0  0  0  0  0  0  0  0  0  0  0
    0.9720  -13.7500    7.5890 C   0  0  0  0  0  0  0  0  0  0  0  0
    0.4660  -13.7540    8.9090 C   0  0  0  0  0  0  0  0  0  0  0  0
   -0.2620  -16.8140    8.5500 C   0  0  0  0  0  0  0  0  0  0  0  0
    0.8510  -16.1200    9.1290 O   0  0  0  0  0  0  0  0  0  0  0  0
    1.2830  -18.0270   12.8010 C   0  0  0  0  0  0  0  0  0  0  0  0
    1.2460  -19.3540   12.0180 C   0  0  0  0  0  0  0  0  0  0  0  0
   -0.0570  -20.0360   12.1070 N   0  0  0  0  0  0  0  0  0  0  0  0
    0.1140  -21.4910   11.8930 C   0  0  0  0  0  0  0  0  0  0  0  0
   -1.0410  -22.3560   12.4490 C   0  0  0  0  0  0  0  0  0  0  0  0
   -1.1700  -22.1770   13.9040 N   0  0  0  0  0  0  0  0  0  0  0  0
   -0.6680  -20.9060   14.4500 C   0  0  0  0  0  0  0  0  0  0  0  0
   -0.7450  -19.7760   13.3950 C   0  0  0  0  0  0  0  0  0  0  0  0
   -1.6750  -23.1760   14.7180 C   0  0  0  0  0  0  0  0  0  0  0  0
   -0.9310  -24.3260   15.0330 C   0  0  0  0  0  0  0  0  0  0  0  0
   -1.4390  -25.3380   15.8570 C   0  0  0  0  0  0  0  0  0  0  0  0
   -2.7140  -25.2250   16.3940 C   0  0  0  0  0  0  0  0  0  0  0  0
   -3.4760  -24.1010   16.1060 C   0  0  0  0  0  0  0  0  0  0  0  0
   -2.9590  -23.0950   15.2810 C   0  0  0  0  0  0  0  0  0  0  0  0
  1  2  2  0
  3  1  1  0
  3 17  1  0
  4  5  2  0
  5  6  1  0
  5  1  1  0
  7  8  1  0
  7  6  2  0
  9  7  1  0
 10  9  2  0
 11 10  1  0
 12 11  2  0
 12 13  1  0
 13 14  2  0
 14  9  1  0
 14  4  1  0
 15 16  1  0
 16  4  1  0
 18 19  1  0
 18 17  1  0
 19 24  1  0
 20 19  1  0
 20 21  1  0
 21 22  1  0
 22 23  1  0
 22 25  1  0
 24 23  1  0
 25 26  2  0
 25 30  1  0
 26 27  1  0
 27 28  2  0
 29 28  1  0
 30 29  2  0
M  END
$$$$
