lig_032
     RDKit          3D

 28 31  0  0  1  0  0  0  0  0999 V2000
   10.9030    0.2830   57.6880 N   0  0  0  0  0  0  0  0  0  0  0  0
   10.5140   -0.9710   58.3630 C   0  0  0  0  0  0  0  0  0  0  0  0
   10.7470   -0.9830   59.8920 C   0  0  0  0  0  0  0  0  0  0  0  0
   10.0340    0.1400   60.5260 N   0  0  0  0  0  0  0  0  0  0  0  0
   10.1050    1.4210   59.7910 C   0  0  0  0  0  0  0  0  0  0  0  0
   11.1430    1.3790   58.6440 C   0  0  0  0  0  0  0  0  0  0  0  0
   10.2340    0.2490   61.9070 C   0  0  0  0  0  0  0  0  0  0  0  0
   11.0190    1.2530   62.3880 N   0  0  0  0  0  0  0  0  0  0  0  0
   11.2200    1.3990   63.7100 C   0  0  0  0  0  0  0  0  0  0  0  0
   10.6870    0.5750   64.6760 C   0  0  0  0  0  0  0  0  0  0  0  0
    9.9070   -0.4850   64.2050 C   0  0  0  0  0  0  0  0  0  0  0  0
    9.1320   -1.6880   65.1670 S   0  0  0  0  0  0  0  0  0  0  0  0
    8.5250   -2.4970   63.7990 C   0  0  0  0  0  0  0  0  0  0  0  0
    8.8870   -1.8690   62.6330 C   0  0  0  0  0  0  0  0  0  0  0  0
    9.6740   -0.6760   62.8410 C   0  0  0  0  0  0  0  0  0  0  0  0
   11.9580    0.1270   56.6840 C   0  0  0  0  0  0  0  0  0  0  0  0
   13.3140    0.7780   57.0160 C   0  0  0  0  0  0  0  0  0  0  0  0
   17.5180    0.4100   56.7380 C   0  0  1  0  0  0  0  0  0  0  0  0
   16.7610   -0.0960   55.5000 C   0  0  0  0  0  0  0  0  0  0  0  0
   15.3210    0.4030   55.4800 C   0  0  0  0  0  0  0  0  0  0  0  0
   14.5160   -0.1330   56.6820 C   0  0  1  0  0  0  0  0  0  0  0  0
   15.4050   -0.3440   57.9270 C   0  0  0  0  0  0  0  0  0  0  0  0
   16.5960    0.6100   57.9550 C   0  0  0  0  0  0  0  0  0  0  0  0
   19.8610   -0.3590   56.4760 C   0  0  0  0  0  0  0  0  0  0  0  0
   20.1160    0.4650   55.6050 O   0  0  0  0  0  0  0  0  0  0  0  0
   18.6130   -0.5010   57.0510 N   0  0  0  0  0  0  0  0  0  0  0  0
   20.5010   -1.8310   58.4210 C   0  0  0  0  0  0  0  0  0  0  0  0
   20.8760   -1.3360   57.0360 C   0  0  0  0  0  0  0  0  0  0  0  0
  1  2  1  0
  1  6  1  0
  2  3  1  0
  3  4  1  0
  4  7  1  0
  5  4  1  0
  6  5  1  0
  7  8  2  0
  7 15  1  0
  8  9  1  0
  9 10  2  0
 11 10  1  0
 11 12  1  0
 13 12  1  0
 14 15  1  0
 14 13  2  0
 15 11  2  0
 16 17  1  0
 16  1  1  0
 18 26  1  1
 18 23  1  0
 19 18  1  0
 20 19  1  0
 20 21  1  0
 21 17  1  1
 21 22  1  0
 22 23  1  0
 24 28  1  0
 24 26  1  0
 25 24  2  0
 28 27  1  0
M  END
$$$$
