lig_009
     RDKit          3D

 37 43  0  0  1  0  0  0  0  0999 V2000
  185.6110  172.0170  172.7380 C   0  0  2  0  0  0  0  0  0  0  0  0
  187.0690  171.7740  173.1570 C   0  0  0  0  0  0  0  0  0  0  0  0
  187.3790  172.1030  174.6290 C   0  0  0  0  0  0  0  0  0  0  0  0
  186.3560  173.0490  175.3130 C   0  0  1  0  0  0  0  0  0  0  0  0
  186.9980  173.9330  176.4550 C   0  0  1  0  0  0  0  0  0  0  0  0
  188.1210  174.8920  175.8910 C   0  0  0  0  0  0  0  0  0  0  0  0
  187.8880  175.3710  174.4760 C   0  0  0  0  0  0  0  0  0  0  0  0
  188.7840  176.1750  173.7680 C   0  0  0  0  0  0  0  0  0  0  0  0
  188.5680  176.4450  172.4000 C   0  0  0  0  0  0  0  0  0  0  0  0
  187.4810  175.8810  171.7310 C   0  0  0  0  0  0  0  0  0  0  0  0
  186.6040  175.0930  172.4390 C   0  0  0  0  0  0  0  0  0  0  0  0
  186.7780  174.9060  173.7890 C   0  0  0  0  0  0  0  0  0  0  0  0
  185.7040  174.0400  174.3430 C   0  0  2  0  0  0  0  0  0  0  0  0
  184.6390  174.8890  175.0710 C   0  0  0  0  0  0  0  0  0  0  0  0
  185.1940  175.6060  176.3090 C   0  0  0  0  0  0  0  0  0  0  0  0
  186.0050  174.7610  177.2010 N   0  0  0  0  0  0  0  0  0  0  0  0
  185.1550  173.4690  173.0190 C   0  0  1  0  0  0  0  0  0  0  0  0
  185.5670  174.3640  171.9220 O   0  0  0  0  0  0  0  0  0  0  0  0
  184.6930  169.7310  173.0660 C   0  0  0  0  0  0  0  0  0  0  0  0
  185.2880  169.2690  172.0990 O   0  0  0  0  0  0  0  0  0  0  0  0
  184.7320  171.0630  173.4160 N   0  0  0  0  0  0  0  0  0  0  0  0
  182.4980  167.0580  175.6290 C   0  0  0  0  0  0  0  0  0  0  0  0
  183.6260  166.6180  174.9250 C   0  0  0  0  0  0  0  0  0  0  0  0
  184.3240  167.5000  174.0930 C   0  0  0  0  0  0  0  0  0  0  0  0
  183.9100  168.8330  173.9630 C   0  0  0  0  0  0  0  0  0  0  0  0
  182.7740  169.2710  174.6550 C   0  0  0  0  0  0  0  0  0  0  0  0
  182.0760  168.3880  175.4860 C   0  0  0  0  0  0  0  0  0  0  0  0
  181.7160  166.1670  176.5290 C   0  0  0  0  0  0  0  0  0  0  0  0
  180.7920  166.5570  177.2230 O   0  0  0  0  0  0  0  0  0  0  0  0
  181.3690  163.9450  177.1600 C   0  0  0  0  0  0  0  0  0  0  0  0
  182.1780  164.8940  176.4620 O   0  0  0  0  0  0  0  0  0  0  0  0
  185.3350  172.1720  175.8420 O   0  0  0  0  0  0  0  0  0  0  0  0
  187.3280  176.0900  170.3960 O   0  0  0  0  0  0  0  0  0  0  0  0
  185.1660  174.0680  178.1810 C   0  0  0  0  0  0  0  0  0  0  0  0
  185.9820  173.3530  179.2210 C   0  0  0  0  0  0  0  0  0  0  0  0
  185.7410  173.5960  180.6910 C   0  0  0  0  0  0  0  0  0  0  0  0
  185.3580  172.2790  180.0790 C   0  0  0  0  0  0  0  0  0  0  0  0
  1 17  1  0
  1  2  1  0
  1 21  1  1
  2  3  1  0
  3  4  1  0
  4 32  1  1
  4  5  1  0
  5  6  1  6
  5 16  1  0
  7  6  1  0
  8  7  1  0
  9  8  2  0
 10  9  1  0
 10 11  2  0
 11 12  1  0
 12 13  1  0
 12  7  2  0
 13 14  1  1
 13  4  1  0
 14 15  1  0
 15 16  1  0
 16 34  1  0
 17 18  1  6
 17 13  1  0
 18 11  1  0
 19 21  1  0
 19 25  1  0
 20 19  2  0
 22 28  1  0
 23 22  1  0
 24 23  2  0
 25 24  1  0
 25 26  2  0
 26 27  1  0
 27 22  2  0
 28 29  2  0
 31 28  1  0
 31 30  1  0
 33 10  1  0
 34 35  1  0
 35 37  1  0
 35 36  1  0
 37 36  1  0
M  END
$$$$
