lig_317
     RDKit          3D

 24 26  0  0  0  0  0  0  0  0999 V2000
    0.4340  -19.5530   13.4120 N   0  0  0  0  0  0  0  0  0  0  0  0
    0.0910  -18.5740   14.4560 C   0  0  0  0  0  0  0  0  0  0  0  0
    0.6350  -17.1760   14.0760 C   0  0  0  0  0  0  0  0  0  0  0  0
    0.1020  -16.6230   12.8080 N   0  0  0  0  0  0  0  0  0  0  0  0
   -0.3270  -17.7130   11.9020 C   0  0  0  0  0  0  0  0  0  0  0  0
    0.4530  -19.0430   12.0280 C   0  0  0  0  0  0  0  0  0  0  0  0
   -1.9450  -21.1550   13.2340 F   0  0  0  0  0  0  0  0  0  0  0  0
   -0.7730  -21.7030   13.5950 C   0  0  0  0  0  0  0  0  0  0  0  0
   -0.7780  -23.0730   13.8670 C   0  0  0  0  0  0  0  0  0  0  0  0
    0.3990  -23.7180   14.2250 C   0  0  0  0  0  0  0  0  0  0  0  0
    1.5750  -22.9830   14.3120 C   0  0  0  0  0  0  0  0  0  0  0  0
    1.5710  -21.6080   14.0380 C   0  0  0  0  0  0  0  0  0  0  0  0
    0.4000  -20.9200   13.6630 C   0  0  0  0  0  0  0  0  0  0  0  0
    1.0560  -15.7180   12.1530 C   0  0  0  0  0  0  0  0  0  0  0  0
    0.4000  -14.8560   11.0640 C   0  0  0  0  0  0  0  0  0  0  0  0
    1.3680  -14.4520    9.9460 C   0  0  0  0  0  0  0  0  0  0  0  0
    0.6990  -13.6510    8.8240 C   0  0  0  0  0  0  0  0  0  0  0  0
    0.8430  -12.2120    9.0320 N   0  0  0  0  0  0  0  0  0  0  0  0
   -0.2360  -11.5450    9.6000 C   0  0  0  0  0  0  0  0  0  0  0  0
   -1.5540  -11.8050    9.2410 C   0  0  0  0  0  0  0  0  0  0  0  0
   -2.5810  -11.0850    9.8480 C   0  0  0  0  0  0  0  0  0  0  0  0
   -2.2650  -10.1200   10.7930 C   0  0  0  0  0  0  0  0  0  0  0  0
   -0.9280   -9.9140   11.0820 C   0  0  0  0  0  0  0  0  0  0  0  0
    0.0840  -10.6010   10.5070 N   0  0  0  0  0  0  0  0  0  0  0  0
  1 13  1  0
  1  2  1  0
  3  2  1  0
  4  3  1  0
  5  6  1  0
  5  4  1  0
  6  1  1  0
  7  8  1  0
  8 13  1  0
  8  9  2  0
  9 10  1  0
 10 11  2  0
 12 11  1  0
 13 12  2  0
 14  4  1  0
 15 14  1  0
 16 15  1  0
 17 18  1  0
 17 16  1  0
 18 19  1  0
 19 24  1  0
 20 19  2  0
 20 21  1  0
 21 22  2  0
 22 23  1  0
 24 23  2  0
M  END
$$$$
