lig_012
     RDKit          3D

 33 37  0  0  0  0  0  0  0  0999 V2000
   10.7430    1.6870   61.9170 C   0  0  0  0  0  0  0  0  0  0  0  0
   10.8130    1.2180   60.5270 N   0  0  0  0  0  0  0  0  0  0  0  0
   11.4260    2.2600   59.6640 C   0  0  0  0  0  0  0  0  0  0  0  0
   11.9980    1.7040   58.3430 C   0  0  0  0  0  0  0  0  0  0  0  0
   13.1140    0.7750   58.6260 N   0  0  0  0  0  0  0  0  0  0  0  0
   12.9890    0.0140   59.8840 C   0  0  0  0  0  0  0  0  0  0  0  0
   11.5250   -0.0740   60.3790 C   0  0  0  0  0  0  0  0  0  0  0  0
   13.5440    0.0880   57.4750 C   0  0  0  0  0  0  0  0  0  0  0  0
   12.6580   -0.7570   56.7830 C   0  0  0  0  0  0  0  0  0  0  0  0
   13.0490   -1.4240   55.6270 C   0  0  0  0  0  0  0  0  0  0  0  0
   14.3380   -1.2560   55.1340 C   0  0  0  0  0  0  0  0  0  0  0  0
   15.2530   -0.4200   55.7870 C   0  0  0  0  0  0  0  0  0  0  0  0
   16.5490   -0.2710   55.2630 C   0  0  0  0  0  0  0  0  0  0  0  0
   17.4910    0.5450   55.8850 C   0  0  0  0  0  0  0  0  0  0  0  0
   17.1450    1.2230   57.0440 C   0  0  0  0  0  0  0  0  0  0  0  0
   15.8620    1.0840   57.5760 C   0  0  0  0  0  0  0  0  0  0  0  0
   15.6040    1.7700   58.7010 F   0  0  0  0  0  0  0  0  0  0  0  0
   14.8720    0.2680   56.9710 C   0  0  0  0  0  0  0  0  0  0  0  0
    9.7780    0.8400   62.7560 C   0  0  0  0  0  0  0  0  0  0  0  0
   10.3460    0.5810   64.1510 C   0  0  0  0  0  0  0  0  0  0  0  0
    9.6160   -0.5610   64.8540 C   0  0  0  0  0  0  0  0  0  0  0  0
    8.5680    0.0140   65.6400 O   0  0  0  0  0  0  0  0  0  0  0  0
    4.3390   -5.1930   63.8250 O   0  0  0  0  0  0  0  0  0  0  0  0
    4.4440   -4.0160   64.1570 C   0  0  0  0  0  0  0  0  0  0  0  0
    3.2370   -3.1620   64.4780 C   0  0  0  0  0  0  0  0  0  0  0  0
    3.4570   -1.7030   64.1150 C   0  0  0  0  0  0  0  0  0  0  0  0
    4.7890   -1.2180   64.6060 C   0  0  0  0  0  0  0  0  0  0  0  0
    5.0240    0.1240   64.9040 C   0  0  0  0  0  0  0  0  0  0  0  0
    6.3080    0.5200   65.2620 C   0  0  0  0  0  0  0  0  0  0  0  0
    7.3110   -0.4370   65.2880 C   0  0  0  0  0  0  0  0  0  0  0  0
    7.1180   -1.7390   64.9900 N   0  0  0  0  0  0  0  0  0  0  0  0
    5.8640   -2.1010   64.6680 C   0  0  0  0  0  0  0  0  0  0  0  0
    5.6640   -3.4380   64.3570 N   0  0  0  0  0  0  0  0  0  0  0  0
  1 19  1  0
  2  1  1  0
  3  2  1  0
  4  5  1  0
  4  3  1  0
  5  6  1  0
  6  7  1  0
  7  2  1  0
  8  5  1  0
  9  8  2  0
 10  9  1  0
 11 10  2  0
 11 12  1  0
 12 18  1  0
 13 12  2  0
 13 14  1  0
 14 15  2  0
 15 16  1  0
 16 17  1  0
 18  8  1  0
 18 16  2  0
 19 20  1  0
 20 21  1  0
 21 22  1  0
 23 24  2  0
 24 33  1  0
 24 25  1  0
 26 25  1  0
 26 27  1  0
 27 32  2  0
 27 28  1  0
 28 29  2  0
 29 30  1  0
 30 22  1  0
 31 30  2  0
 32 31  1  0
 33 32  1  0
M  END
$$$$
