lig_372
     RDKit          3D

 27 30  0  0  0  0  0  0  0  0999 V2000
   -0.5380  -19.3100   13.4810 N   0  0  0  0  0  0  0  0  0  0  0  0
   -0.8860  -18.9940   12.0790 C   0  0  0  0  0  0  0  0  0  0  0  0
   -0.1060  -17.7770   11.5320 C   0  0  0  0  0  0  0  0  0  0  0  0
   -0.2550  -16.5470   12.3440 N   0  0  0  0  0  0  0  0  0  0  0  0
   -0.2700  -16.8640   13.7910 C   0  0  0  0  0  0  0  0  0  0  0  0
    0.2510  -18.2710   14.1690 C   0  0  0  0  0  0  0  0  0  0  0  0
   -0.8130  -21.7820   13.7870 C   0  0  0  0  0  0  0  0  0  0  0  0
   -0.1850  -23.0160   14.0110 C   0  0  0  0  0  0  0  0  0  0  0  0
    1.2030  -23.0950   14.1500 C   0  0  0  0  0  0  0  0  0  0  0  0
    1.9790  -21.9460   14.0630 C   0  0  0  0  0  0  0  0  0  0  0  0
    1.3650  -20.7140   13.8430 C   0  0  0  0  0  0  0  0  0  0  0  0
   -0.0310  -20.6060   13.7090 C   0  0  0  0  0  0  0  0  0  0  0  0
   -2.9870  -22.7770   13.8260 C   0  0  0  0  0  0  0  0  0  0  0  0
   -2.1690  -21.6340   13.6220 O   0  0  0  0  0  0  0  0  0  0  0  0
    0.7690  -15.5640   11.9720 C   0  0  0  0  0  0  0  0  0  0  0  0
    0.2380  -14.4180   11.1550 C   0  0  0  0  0  0  0  0  0  0  0  0
   -0.6870  -13.4520   11.7390 C   0  0  0  0  0  0  0  0  0  0  0  0
   -0.9920  -12.5180   10.8270 C   0  0  0  0  0  0  0  0  0  0  0  0
   -0.2530  -12.8450    9.6130 C   0  0  0  0  0  0  0  0  0  0  0  0
   -0.2720  -12.1250    8.4810 C   0  0  0  0  0  0  0  0  0  0  0  0
    0.4560  -12.3610    7.2560 C   0  0  0  0  0  0  0  0  0  0  0  0
    1.2890  -13.3610    6.9390 C   0  0  0  0  0  0  0  0  0  0  0  0
    1.6960  -14.5030    7.7240 C   0  0  0  0  0  0  0  0  0  0  0  0
    1.3730  -14.8140    8.9870 C   0  0  0  0  0  0  0  0  0  0  0  0
    0.5150  -14.0700    9.8740 C   0  0  0  0  0  0  0  0  0  0  0  0
   -1.8630  -11.4230   11.0260 C   0  0  0  0  0  0  0  0  0  0  0  0
   -2.5800  -10.5260   11.1930 N   0  0  0  0  0  0  0  0  0  0  0  0
  1 12  1  0
  1  6  1  0
  2  1  1  0
  3  2  1  0
  3  4  1  0
  4  5  1  0
  5  6  1  0
  7  8  2  0
  8  9  1  0
 10  9  2  0
 11 10  1  0
 12  7  1  0
 12 11  2  0
 14  7  1  0
 14 13  1  0
 15  4  1  0
 16 17  1  0
 16 15  1  0
 18 26  1  0
 18 17  2  0
 19 25  1  0
 19 18  1  0
 20 19  2  0
 21 20  1  0
 22 21  2  0
 22 23  1  0
 23 24  2  0
 24 25  1  0
 25 16  2  0
 26 27  3  0
M  END
$$$$
