lig_453
     RDKit          3D

 25 28  0  0  0  0  0  0  0  0999 V2000
   -3.8820    5.1100   17.3150 C   0  0  0  0  0  0  0  0  0  0  0  0
   -3.5160    3.9750   17.8750 N   0  0  0  0  0  0  0  0  0  0  0  0
   -2.2070    3.9230   18.2650 C   0  0  0  0  0  0  0  0  0  0  0  0
   -1.5890    2.8630   18.8680 N   0  0  0  0  0  0  0  0  0  0  0  0
   -0.2800    3.0920   19.1450 N   0  0  0  0  0  0  0  0  0  0  0  0
   -0.0670    4.3410   18.7040 C   0  0  0  0  0  0  0  0  0  0  0  0
   -1.2230    4.8780   18.1610 C   0  0  0  0  0  0  0  0  0  0  0  0
   -1.6870    6.1650   17.5130 C   0  0  0  0  0  0  0  0  0  0  0  0
   -1.0920    7.2910   17.2290 N   0  0  0  0  0  0  0  0  0  0  0  0
   -2.1100    8.0280   16.6430 C   0  0  0  0  0  0  0  0  0  0  0  0
   -3.2940    7.3860   16.5620 N   0  0  0  0  0  0  0  0  0  0  0  0
   -3.0000    6.1990   17.1270 N   0  0  0  0  0  0  0  0  0  0  0  0
   -1.8930    9.3900   16.1590 C   0  0  0  0  0  0  0  0  0  0  0  0
   -2.8380   10.0270   15.3440 C   0  0  0  0  0  0  0  0  0  0  0  0
   -2.6160   11.3310   14.8890 C   0  0  0  0  0  0  0  0  0  0  0  0
   -1.4530   12.0200   15.2360 C   0  0  0  0  0  0  0  0  0  0  0  0
   -0.5080   11.3940   16.0470 C   0  0  0  0  0  0  0  0  0  0  0  0
   -0.7280   10.0880   16.5040 C   0  0  0  0  0  0  0  0  0  0  0  0
   -1.3640   13.2840   14.7230 O   0  0  0  0  0  0  0  0  0  0  0  0
   -2.5610   14.0610   14.6990 C   0  0  0  0  0  0  0  0  0  0  0  0
   -2.6400   14.8410   16.0000 C   0  0  0  0  0  0  0  0  0  0  0  0
   -5.2950    5.3380   16.8410 C   0  0  0  0  0  0  0  0  0  0  0  0
   -6.2880    5.4860   17.9960 C   0  0  0  0  0  0  0  0  0  0  0  0
   -7.3880    3.3470   17.1340 C   0  0  0  0  0  0  0  0  0  0  0  0
   -7.5770    4.6700   17.8580 C   0  0  0  0  0  0  0  0  0  0  0  0
  1  2  2  0
  2  3  1  0
  3  4  1  0
  4  5  1  0
  6  5  2  0
  7  3  2  0
  7  6  1  0
  8  7  1  0
  9  8  2  0
 10  9  1  0
 11 10  2  0
 11 12  1  0
 12  1  1  0
 12  8  1  0
 13 18  2  0
 13 10  1  0
 14 13  1  0
 15 16  1  0
 15 14  2  0
 16 17  2  0
 17 18  1  0
 19 16  1  0
 20 19  1  0
 20 21  1  0
 22  1  1  0
 22 23  1  0
 24 25  1  0
 25 23  1  0
M  END
$$$$
