lig_072
     RDKit          3D

 25 27  0  0  0  0  0  0  0  0999 V2000
   -0.6490  -17.6800   10.9730 O   0  0  0  0  0  0  0  0  0  0  0  0
    0.1390  -17.2810   11.8150 C   0  0  0  0  0  0  0  0  0  0  0  0
    0.7550  -18.1170   12.7620 N   0  0  0  0  0  0  0  0  0  0  0  0
    1.8250  -17.4240   13.4280 C   0  0  0  0  0  0  0  0  0  0  0  0
    1.4970  -15.9590   13.1900 C   0  0  0  0  0  0  0  0  0  0  0  0
    0.6170  -15.9680   12.0410 N   0  0  0  0  0  0  0  0  0  0  0  0
    0.2300  -14.7890   11.3490 C   0  0  0  0  0  0  0  0  0  0  0  0
   -0.6660  -13.8660   11.9020 C   0  0  0  0  0  0  0  0  0  0  0  0
   -1.0390  -12.7090   11.2090 C   0  0  0  0  0  0  0  0  0  0  0  0
   -0.5220  -12.4530    9.9430 C   0  0  0  0  0  0  0  0  0  0  0  0
    0.3690  -13.3560    9.3560 C   0  0  0  0  0  0  0  0  0  0  0  0
    0.7400  -14.5120   10.0700 C   0  0  0  0  0  0  0  0  0  0  0  0
    0.9570  -13.0830    7.9950 C   0  0  0  0  0  0  0  0  0  0  0  0
    1.9660  -13.9440    7.6850 F   0  0  0  0  0  0  0  0  0  0  0  0
    0.0450  -13.2030    6.9900 F   0  0  0  0  0  0  0  0  0  0  0  0
    1.4810  -11.8320    7.8730 F   0  0  0  0  0  0  0  0  0  0  0  0
    0.6910  -19.5680   12.6790 C   0  0  0  0  0  0  0  0  0  0  0  0
   -0.6030  -20.1460   13.2890 C   0  0  0  0  0  0  0  0  0  0  0  0
   -0.4940  -21.4330   13.9970 N   0  0  0  0  0  0  0  0  0  0  0  0
    0.5460  -22.2880   13.4280 C   0  0  0  0  0  0  0  0  0  0  0  0
    0.8620  -23.5440   14.2450 C   0  0  0  0  0  0  0  0  0  0  0  0
   -0.2860  -24.5370   14.4480 C   0  0  0  0  0  0  0  0  0  0  0  0
   -1.3560  -24.4880   13.3640 C   0  0  0  0  0  0  0  0  0  0  0  0
   -2.2220  -23.2200   13.3540 C   0  0  0  0  0  0  0  0  0  0  0  0
   -1.7830  -22.0690   14.2680 C   0  0  0  0  0  0  0  0  0  0  0  0
  1  2  2  0
  2  6  1  0
  2  3  1  0
  3  4  1  0
  5  4  1  0
  6  5  1  0
  7  8  1  0
  7  6  1  0
  9  8  2  0
 10  9  1  0
 11 10  2  0
 11 12  1  0
 12  7  2  0
 13 11  1  0
 14 13  1  0
 15 13  1  0
 16 13  1  0
 17  3  1  0
 17 18  1  0
 18 19  1  0
 19 25  1  0
 20 19  1  0
 20 21  1  0
 21 22  1  0
 23 22  1  0
 24 23  2  0
 24 25  1  0
M  END
$$$$
