lig_021
     RDKit          3D

 34 39  0  0  0  0  0  0  0  0999 V2000
  125.6390  139.3870  104.5280 N   0  0  0  0  0  0  0  0  0  0  0  0
  125.7010  137.9130  104.4090 C   0  0  0  0  0  0  0  0  0  0  0  0
  126.9040  137.3100  105.1710 C   0  0  0  0  0  0  0  0  0  0  0  0
  126.9970  137.6690  106.6060 N   0  0  0  0  0  0  0  0  0  0  0  0
  126.3950  139.0040  106.8580 C   0  0  0  0  0  0  0  0  0  0  0  0
  126.4420  139.9510  105.6380 C   0  0  0  0  0  0  0  0  0  0  0  0
  121.5150  142.7120  100.6660 C   0  0  0  0  0  0  0  0  0  0  0  0
  122.6180  142.0120  101.4010 C   0  0  0  0  0  0  0  0  0  0  0  0
  122.3400  141.2830  102.5460 C   0  0  0  0  0  0  0  0  0  0  0  0
  123.3910  140.6490  103.1980 C   0  0  0  0  0  0  0  0  0  0  0  0
  124.7060  140.7480  102.7070 C   0  0  0  0  0  0  0  0  0  0  0  0
  125.8210  140.1180  103.3320 C   0  0  0  0  0  0  0  0  0  0  0  0
  127.0920  140.2710  102.7580 C   0  0  0  0  0  0  0  0  0  0  0  0
  127.2610  141.0180  101.5980 C   0  0  0  0  0  0  0  0  0  0  0  0
  126.1570  141.6260  101.0000 C   0  0  0  0  0  0  0  0  0  0  0  0
  124.8830  141.5080  101.5300 C   0  0  0  0  0  0  0  0  0  0  0  0
  123.8690  142.1270  100.8960 N   0  0  0  0  0  0  0  0  0  0  0  0
  126.3890  136.6320  107.4590 C   0  0  0  0  0  0  0  0  0  0  0  0
  125.4890  137.2100  108.5670 C   0  0  0  0  0  0  0  0  0  0  0  0
  125.7520  136.5510  109.9030 C   0  0  0  0  0  0  0  0  0  0  0  0
  126.4010  135.3060  109.9490 C   0  0  0  0  0  0  0  0  0  0  0  0
  126.6250  134.6590  111.1670 C   0  0  0  0  0  0  0  0  0  0  0  0
  126.2030  135.2400  112.3610 C   0  0  0  0  0  0  0  0  0  0  0  0
  125.5640  136.4790  112.3200 C   0  0  0  0  0  0  0  0  0  0  0  0
  125.3390  137.1420  111.1050 C   0  0  0  0  0  0  0  0  0  0  0  0
  124.6350  138.3180  111.0290 O   0  0  0  0  0  0  0  0  0  0  0  0
  124.6640  139.1730  112.1860 C   0  0  0  0  0  0  0  0  0  0  0  0
  124.5990  138.3920  113.4330 C   0  0  0  0  0  0  0  0  0  0  0  0
  124.1950  138.6650  114.7210 C   0  0  0  0  0  0  0  0  0  0  0  0
  124.4460  137.5920  115.5450 N   0  0  0  0  0  0  0  0  0  0  0  0
  124.9900  136.6810  114.7640 C   0  0  0  0  0  0  0  0  0  0  0  0
  125.0840  137.1150  113.4680 N   0  0  0  0  0  0  0  0  0  0  0  0
  123.6260  139.8810  115.2160 C   0  0  0  0  0  0  0  0  0  0  0  0
  123.1790  140.8530  115.6690 N   0  0  0  0  0  0  0  0  0  0  0  0
  1  6  1  0
  2  1  1  0
  2  3  1  0
  3  4  1  0
  4  5  1  0
  4 18  1  0
  6  5  1  0
  7  8  1  0
  8  9  1  0
  9 10  2  0
 11 10  1  0
 11 12  2  0
 12  1  1  0
 13 12  1  0
 14 13  2  0
 15 16  2  0
 15 14  1  0
 16 11  1  0
 17  8  2  0
 17 16  1  0
 18 19  1  0
 19 20  1  0
 20 21  1  0
 20 25  2  0
 21 22  2  0
 22 23  1  0
 24 23  2  0
 24 32  1  0
 25 24  1  0
 26 25  1  0
 26 27  1  0
 27 28  1  0
 28 32  1  0
 28 29  2  0
 29 33  1  0
 29 30  1  0
 31 30  2  0
 32 31  1  0
 33 34  3  0
M  END
$$$$
