lig_016
     RDKit          3D

 29 33  0  0  0  0  0  0  0  0999 V2000
   13.4730    0.8780   59.0780 N   0  0  0  0  0  0  0  0  0  0  0  0
   13.3980    0.0980   57.8370 C   0  0  0  0  0  0  0  0  0  0  0  0
   14.7090    0.2100   57.0580 C   0  0  0  0  0  0  0  0  0  0  0  0
   15.9020   -0.2230   57.9210 C   0  0  0  0  0  0  0  0  0  0  0  0
   15.8980    0.5300   59.2580 C   0  0  0  0  0  0  0  0  0  0  0  0
   14.5450    0.4020   59.9560 C   0  0  0  0  0  0  0  0  0  0  0  0
   17.2090   -0.0920   57.1980 C   0  0  0  0  0  0  0  0  0  0  0  0
   17.2460    0.5700   56.0310 N   0  0  0  0  0  0  0  0  0  0  0  0
   18.5640    0.5230   55.6080 O   0  0  0  0  0  0  0  0  0  0  0  0
   19.3080   -0.1650   56.5140 C   0  0  0  0  0  0  0  0  0  0  0  0
   20.6740   -0.4200   56.4280 C   0  0  0  0  0  0  0  0  0  0  0  0
   21.2350   -1.1520   57.4790 C   0  0  0  0  0  0  0  0  0  0  0  0
   20.4500   -1.5970   58.5470 C   0  0  0  0  0  0  0  0  0  0  0  0
   19.0760   -1.3220   58.6010 C   0  0  0  0  0  0  0  0  0  0  0  0
   18.4960   -0.5850   57.5520 C   0  0  0  0  0  0  0  0  0  0  0  0
   12.1690    0.9660   59.7590 C   0  0  0  0  0  0  0  0  0  0  0  0
   11.5010   -0.3570   60.1980 C   0  0  0  0  0  0  0  0  0  0  0  0
    8.0710   -0.2790   66.4290 C   0  0  0  0  0  0  0  0  0  0  0  0
    8.3690   -0.8140   65.1190 N   0  0  0  0  0  0  0  0  0  0  0  0
    7.6610   -1.8600   64.6720 N   0  0  0  0  0  0  0  0  0  0  0  0
    8.1790   -2.0960   63.4680 C   0  0  0  0  0  0  0  0  0  0  0  0
    9.2200   -1.1980   63.1200 C   0  0  0  0  0  0  0  0  0  0  0  0
    9.3320   -0.3770   64.2360 C   0  0  0  0  0  0  0  0  0  0  0  0
   10.2200    0.7700   64.5690 C   0  0  0  0  0  0  0  0  0  0  0  0
   11.3900    0.9400   63.6150 C   0  0  0  0  0  0  0  0  0  0  0  0
   10.9240    1.0520   62.1720 C   0  0  0  0  0  0  0  0  0  0  0  0
   10.8520   -0.2470   61.5110 N   0  0  0  0  0  0  0  0  0  0  0  0
    9.9480   -1.2570   61.8570 C   0  0  0  0  0  0  0  0  0  0  0  0
    9.7570   -2.2090   61.0980 O   0  0  0  0  0  0  0  0  0  0  0  0
  1 16  1  0
  1  6  1  0
  2  1  1  0
  3  2  1  0
  3  4  1  0
  4  5  1  0
  5  6  1  0
  7 15  1  0
  7  4  1  0
  8  7  2  0
  9  8  1  0
  9 10  1  0
 10 15  1  0
 11 10  2  0
 11 12  1  0
 12 13  2  0
 13 14  1  0
 15 14  2  0
 16 17  1  0
 17 27  1  0
 19 18  1  0
 20 19  1  0
 21 20  2  0
 22 21  1  0
 22 23  2  0
 23 24  1  0
 23 19  1  0
 25 24  1  0
 26 25  1  0
 27 28  1  0
 27 26  1  0
 28 22  1  0
 29 28  2  0
M  END
$$$$
