lig_019
     RDKit          3D

 23 27  0  0  1  0  0  0  0  0999 V2000
    5.0100  -26.5580   57.0290 C   0  0  0  0  0  0  0  0  0  0  0  0
    5.6040  -26.9820   58.3170 C   0  0  0  0  0  0  0  0  0  0  0  0
    5.5280  -26.3530   59.4680 N   0  0  0  0  0  0  0  0  0  0  0  0
    6.2270  -27.1150   60.3810 C   0  0  0  0  0  0  0  0  0  0  0  0
    6.4620  -26.8960   61.7640 C   0  0  0  0  0  0  0  0  0  0  0  0
    7.1870  -27.9160   62.4460 C   0  0  0  0  0  0  0  0  0  0  0  0
    7.6760  -29.0470   61.7650 C   0  0  0  0  0  0  0  0  0  0  0  0
    7.4630  -29.2370   60.4030 C   0  0  0  0  0  0  0  0  0  0  0  0
    6.7290  -28.2510   59.7530 C   0  0  0  0  0  0  0  0  0  0  0  0
    6.3270  -28.1380   58.4460 N   0  0  0  0  0  0  0  0  0  0  0  0
    7.4930  -27.8220   63.9270 C   0  0  0  0  0  0  0  0  0  0  0  0
    6.9310  -26.5920   64.6820 C   0  0  1  0  0  0  0  0  0  0  0  0
    6.9260  -25.3910   63.7150 C   0  0  2  0  0  0  0  0  0  0  0  0
    6.7590  -24.0510   64.4460 C   0  0  0  0  0  0  0  0  0  0  0  0
    5.9040  -25.7020   62.5770 C   0  0  1  0  0  0  0  0  0  0  0  0
    5.7060  -24.4450   61.7030 C   0  0  0  0  0  0  0  0  0  0  0  0
    4.5330  -26.1690   63.1370 C   0  0  0  0  0  0  0  0  0  0  0  0
    4.4750  -26.2860   64.6580 C   0  0  0  0  0  0  0  0  0  0  0  0
    5.6270  -26.9360   65.2930 N   0  0  0  0  0  0  0  0  0  0  0  0
    5.5860  -26.6900   66.7460 C   0  0  0  0  0  0  0  0  0  0  0  0
    6.8360  -26.9800   67.5280 C   0  0  0  0  0  0  0  0  0  0  0  0
    6.8010  -27.4640   68.9570 C   0  0  0  0  0  0  0  0  0  0  0  0
    7.3570  -28.3530   67.8740 C   0  0  0  0  0  0  0  0  0  0  0  0
  1  2  1  0
  2 10  1  0
  2  3  2  0
  3  4  1  0
  4  5  1  0
  5  6  2  0
  5 15  1  0
  6 11  1  0
  7  6  1  0
  8  7  2  0
  9  4  2  0
  9  8  1  0
 10  9  1  0
 12 11  1  6
 12 19  1  0
 13 14  1  1
 13 12  1  0
 15 16  1  6
 15 17  1  0
 15 13  1  0
 17 18  1  0
 18 19  1  0
 19 20  1  0
 20 21  1  0
 21 23  1  0
 21 22  1  0
 23 22  1  0
M  END
$$$$
