lig_023
     RDKit          3D

 30 33  0  0  0  0  0  0  0  0999 V2000
   13.2980   -0.5020   53.6820 C   0  0  0  0  0  0  0  0  0  0  0  0
   14.7830   -0.7780   53.9320 C   0  0  0  0  0  0  0  0  0  0  0  0
   15.6580    0.4750   53.8800 C   0  0  0  0  0  0  0  0  0  0  0  0
   15.7110    1.1040   55.1640 O   0  0  0  0  0  0  0  0  0  0  0  0
   21.9870   -1.3780   56.9180 O   0  0  0  0  0  0  0  0  0  0  0  0
   20.8170   -1.1720   57.2210 C   0  0  0  0  0  0  0  0  0  0  0  0
   20.3020   -1.5750   58.5550 C   0  0  0  0  0  0  0  0  0  0  0  0
   19.0270   -1.3580   58.9030 C   0  0  0  0  0  0  0  0  0  0  0  0
   18.1230   -0.7130   57.9550 C   0  0  0  0  0  0  0  0  0  0  0  0
   16.7860   -0.4600   58.2520 C   0  0  0  0  0  0  0  0  0  0  0  0
   15.9880    0.1590   57.2940 C   0  0  0  0  0  0  0  0  0  0  0  0
   16.5560    0.5040   56.0760 C   0  0  0  0  0  0  0  0  0  0  0  0
   17.8450    0.2720   55.7540 N   0  0  0  0  0  0  0  0  0  0  0  0
   18.5960   -0.3280   56.6970 C   0  0  0  0  0  0  0  0  0  0  0  0
   19.9280   -0.5730   56.3770 N   0  0  0  0  0  0  0  0  0  0  0  0
   12.3690   -1.3710   54.5410 C   0  0  0  0  0  0  0  0  0  0  0  0
   11.6230   -0.5920   55.5420 N   0  0  0  0  0  0  0  0  0  0  0  0
   12.5310    0.3780   56.2080 C   0  0  0  0  0  0  0  0  0  0  0  0
   11.8310    1.2110   57.3100 C   0  0  0  0  0  0  0  0  0  0  0  0
   11.2280    0.3020   58.3040 N   0  0  0  0  0  0  0  0  0  0  0  0
   10.2820   -0.6490   57.6910 C   0  0  0  0  0  0  0  0  0  0  0  0
   10.9990   -1.4550   56.5770 C   0  0  0  0  0  0  0  0  0  0  0  0
   10.7860    0.9120   59.4900 C   0  0  0  0  0  0  0  0  0  0  0  0
    9.7120    1.8100   59.3280 C   0  0  0  0  0  0  0  0  0  0  0  0
    9.1550    2.5000   60.4040 C   0  0  0  0  0  0  0  0  0  0  0  0
    9.6650    2.3040   61.6820 C   0  0  0  0  0  0  0  0  0  0  0  0
   10.7290    1.4210   61.8800 C   0  0  0  0  0  0  0  0  0  0  0  0
   11.2960    1.2430   63.5090 Cl  0  0  0  0  0  0  0  0  0  0  0  0
   11.2980    0.7210   60.7960 C   0  0  0  0  0  0  0  0  0  0  0  0
   12.6230   -0.3650   61.0960 Cl  0  0  0  0  0  0  0  0  0  0  0  0
  1  2  1  0
  1 16  1  0
  3  2  1  0
  3  4  1  0
  4 12  1  0
  5  6  2  0
  6  7  1  0
  7  8  2  0
  9 10  1  0
  9  8  1  0
 11 10  2  0
 12 11  1  0
 13 12  2  0
 13 14  1  0
 14  9  2  0
 15 14  1  0
 15  6  1  0
 16 17  1  0
 17 18  1  0
 17 22  1  0
 18 19  1  0
 19 20  1  0
 20 23  1  0
 21 20  1  0
 22 21  1  0
 23 29  1  0
 24 23  2  0
 24 25  1  0
 25 26  2  0
 26 27  1  0
 27 28  1  0
 29 30  1  0
 29 27  2  0
M  END
$$$$
