lig_058
     RDKit          3D

 20 22  0  0  0  0  0  0  0  0999 V2000
   19.4150   18.5830    9.8080 C   0  0  0  0  0  0  0  0  0  0  0  0
   19.3550   17.2830   10.3150 C   0  0  0  0  0  0  0  0  0  0  0  0
   20.4120   16.3830   10.1240 C   0  0  0  0  0  0  0  0  0  0  0  0
   21.5610   16.7530    9.4140 C   0  0  0  0  0  0  0  0  0  0  0  0
   21.6130   18.0480    8.8950 C   0  0  0  0  0  0  0  0  0  0  0  0
   20.5600   18.9500    9.0900 C   0  0  0  0  0  0  0  0  0  0  0  0
   18.3690   19.5100    9.9440 N   0  0  0  0  0  0  0  0  0  0  0  0
   18.3620   23.6120   10.9450 C   0  0  0  0  0  0  0  0  0  0  0  0
   17.4740   23.1410    9.9830 C   0  0  0  0  0  0  0  0  0  0  0  0
   17.4720   21.7860    9.6350 C   0  0  0  0  0  0  0  0  0  0  0  0
   18.3600   20.8850   10.2340 C   0  0  0  0  0  0  0  0  0  0  0  0
   19.2430   21.3790   11.2060 C   0  0  0  0  0  0  0  0  0  0  0  0
   19.2470   22.7310   11.5590 C   0  0  0  0  0  0  0  0  0  0  0  0
   22.5750   15.8040    9.2140 N   0  0  0  0  0  0  0  0  0  0  0  0
   23.0330   15.1420    8.0630 C   0  0  0  0  0  0  0  0  0  0  0  0
   22.5670   15.4370    6.7760 C   0  0  0  0  0  0  0  0  0  0  0  0
   23.0800   14.7800    5.6540 C   0  0  0  0  0  0  0  0  0  0  0  0
   24.0780   13.8200    5.8020 C   0  0  0  0  0  0  0  0  0  0  0  0
   24.5600   13.5170    7.0730 C   0  0  0  0  0  0  0  0  0  0  0  0
   24.0430   14.1760    8.1910 C   0  0  0  0  0  0  0  0  0  0  0  0
  1  7  1  0
  1  2  1  0
  3  2  2  0
  4  3  1  0
  5  6  1  0
  5  4  2  0
  6  1  2  0
  7 11  1  0
  8 13  1  0
  9  8  2  0
 10  9  1  0
 10 11  2  0
 11 12  1  0
 12 13  2  0
 14  4  1  0
 15 20  1  0
 15 14  1  0
 16 15  2  0
 17 18  2  0
 17 16  1  0
 18 19  1  0
 19 20  2  0
M  END
$$$$
