lig_007
     RDKit          3D

 32 36  0  0  1  0  0  0  0  0999 V2000
   11.7910    0.6350   63.2720 C   0  0  0  0  0  0  0  0  0  0  0  0
   13.6930    0.1680   59.3330 C   0  0  1  0  0  0  0  0  0  0  0  0
   12.1660    0.2200   59.4210 C   0  0  0  0  0  0  0  0  0  0  0  0
   11.7000    0.7840   60.7600 C   0  0  0  0  0  0  0  0  0  0  0  0
   12.2760   -0.0010   61.9510 C   0  0  1  0  0  0  0  0  0  0  0  0
   13.8080   -0.0690   61.8550 C   0  0  0  0  0  0  0  0  0  0  0  0
   14.2770   -0.6220   60.5090 C   0  0  0  0  0  0  0  0  0  0  0  0
   15.7830    1.0880   57.6780 O   0  0  0  0  0  0  0  0  0  0  0  0
   15.1820    0.0700   57.3540 C   0  0  0  0  0  0  0  0  0  0  0  0
   14.1040   -0.4200   58.0660 N   0  0  0  0  0  0  0  0  0  0  0  0
   15.5380   -0.7670   56.1200 C   0  0  0  0  0  0  0  0  0  0  0  0
   16.2230    0.0770   55.0340 C   0  0  0  0  0  0  0  0  0  0  0  0
   15.2420    0.9820   54.2890 C   0  0  0  0  0  0  0  0  0  0  0  0
   14.0890    0.1820   53.6950 C   0  0  0  0  0  0  0  0  0  0  0  0
   13.3650   -0.6300   54.7620 C   0  0  0  0  0  0  0  0  0  0  0  0
   14.3230   -1.5180   55.5570 C   0  0  0  0  0  0  0  0  0  0  0  0
   10.7940   -0.2430   64.0460 C   0  0  0  0  0  0  0  0  0  0  0  0
    9.3950    0.1050   63.7470 N   0  0  0  0  0  0  0  0  0  0  0  0
    8.7700   -0.7670   62.7240 C   0  0  0  0  0  0  0  0  0  0  0  0
    8.4800   -2.2190   63.1750 C   0  0  0  0  0  0  0  0  0  0  0  0
    7.6800   -2.2580   64.4190 N   0  0  0  0  0  0  0  0  0  0  0  0
    6.3100   -2.2570   64.2810 C   0  0  0  0  0  0  0  0  0  0  0  0
    5.5280   -1.2630   64.7030 N   0  0  0  0  0  0  0  0  0  0  0  0
    3.9590   -1.5920   64.3350 S   0  0  0  0  0  0  0  0  0  0  0  0
    4.2360   -3.1340   63.6430 C   0  0  0  0  0  0  0  0  0  0  0  0
    3.3130   -4.0490   63.1060 C   0  0  0  0  0  0  0  0  0  0  0  0
    3.7930   -5.2680   62.6190 C   0  0  0  0  0  0  0  0  0  0  0  0
    5.1480   -5.5690   62.6720 C   0  0  0  0  0  0  0  0  0  0  0  0
    6.0550   -4.6470   63.2050 C   0  0  0  0  0  0  0  0  0  0  0  0
    5.6080   -3.3900   63.6920 C   0  0  0  0  0  0  0  0  0  0  0  0
    8.2570   -1.3980   65.4760 C   0  0  0  0  0  0  0  0  0  0  0  0
    8.5520    0.0340   64.9700 C   0  0  0  0  0  0  0  0  0  0  0  0
  1 17  1  0
  2 10  1  6
  2  3  1  0
  2  7  1  0
  3  4  1  0
  4  5  1  0
  5  1  1  1
  6  5  1  0
  7  6  1  0
  9  8  2  0
  9 10  1  0
 11  9  1  0
 12 11  1  0
 13 12  1  0
 14 13  1  0
 14 15  1  0
 15 16  1  0
 16 11  1  0
 18 17  1  0
 18 32  1  0
 19 20  1  0
 19 18  1  0
 20 21  1  0
 21 31  1  0
 22 21  1  0
 22 23  2  0
 24 23  1  0
 25 30  1  0
 25 24  1  0
 26 25  2  0
 27 28  2  0
 27 26  1  0
 28 29  1  0
 29 30  2  0
 30 22  1  0
 32 31  1  0
M  END
$$$$
