lig_025
     RDKit          3D

 26 28  0  0  0  0  0  0  0  0999 V2000
   12.1640    0.1170   61.0170 C   0  0  0  0  0  0  0  0  0  0  0  0
   13.0650   -0.4620   61.9080 C   0  0  0  0  0  0  0  0  0  0  0  0
   14.3620   -0.7260   61.4710 C   0  0  0  0  0  0  0  0  0  0  0  0
   14.7160   -0.3960   60.1640 C   0  0  0  0  0  0  0  0  0  0  0  0
   13.8440    0.1760   59.2980 N   0  0  0  0  0  0  0  0  0  0  0  0
   12.5880    0.4300   59.7410 C   0  0  0  0  0  0  0  0  0  0  0  0
   10.6520    1.3600   62.6790 O   0  0  0  0  0  0  0  0  0  0  0  0
   10.5190    0.4950   61.5180 S   0  0  0  0  0  0  0  0  0  0  0  0
    9.7780    0.9490   60.3570 O   0  0  0  0  0  0  0  0  0  0  0  0
    9.7490   -0.9920   62.0660 C   0  0  0  0  0  0  0  0  0  0  0  0
    9.2980   -1.1120   63.3840 C   0  0  0  0  0  0  0  0  0  0  0  0
    8.7030   -2.3050   63.7980 C   0  0  0  0  0  0  0  0  0  0  0  0
    8.5590   -3.3660   62.9010 C   0  0  0  0  0  0  0  0  0  0  0  0
    9.0100   -3.2350   61.5870 C   0  0  0  0  0  0  0  0  0  0  0  0
    9.6050   -2.0460   61.1740 C   0  0  0  0  0  0  0  0  0  0  0  0
   10.0310   -1.9470   59.9100 F   0  0  0  0  0  0  0  0  0  0  0  0
   16.0750   -0.6690   59.6790 C   0  0  0  0  0  0  0  0  0  0  0  0
   16.5750   -0.1620   58.5400 C   0  0  0  0  0  0  0  0  0  0  0  0
   17.9310   -0.4660   58.0650 C   0  0  0  0  0  0  0  0  0  0  0  0
   18.7360   -1.2580   58.9010 C   0  0  0  0  0  0  0  0  0  0  0  0
   20.0380   -1.5930   58.5220 C   0  0  0  0  0  0  0  0  0  0  0  0
   20.5340   -1.1420   57.3050 C   0  0  0  0  0  0  0  0  0  0  0  0
   21.7820   -1.4640   56.9440 F   0  0  0  0  0  0  0  0  0  0  0  0
   19.7550   -0.3670   56.4560 C   0  0  0  0  0  0  0  0  0  0  0  0
   18.4520   -0.0300   56.8330 C   0  0  0  0  0  0  0  0  0  0  0  0
   17.5230    0.9160   55.7220 Cl  0  0  0  0  0  0  0  0  0  0  0  0
  1  8  1  0
  1  2  1  0
  3  2  2  0
  4  3  1  0
  5  6  1  0
  5  4  2  0
  6  1  2  0
  8 10  1  0
  8  7  2  0
  9  8  2  0
 10 11  2  0
 11 12  1  0
 13 12  2  0
 14 13  1  0
 15 14  2  0
 15 10  1  0
 16 15  1  0
 17  4  1  0
 18 17  2  0
 19 18  1  0
 19 20  1  0
 21 20  2  0
 22 21  1  0
 23 22  1  0
 24 25  1  0
 24 22  2  0
 25 19  2  0
 26 25  1  0
M  END
$$$$
