lig_145
     RDKit          3D

 32 36  0  0  1  0  0  0  0  0999 V2000
   21.1570   17.4030   11.1730 C   0  0  0  0  0  0  0  0  0  0  0  0
   21.9080   17.3910   12.3560 C   0  0  0  0  0  0  0  0  0  0  0  0
   21.9630   18.5340   13.1540 C   0  0  0  0  0  0  0  0  0  0  0  0
   21.3380   19.7130   12.9090 N   0  0  0  0  0  0  0  0  0  0  0  0
   20.6090   19.6640   11.7780 C   0  0  0  0  0  0  0  0  0  0  0  0
   20.4750   18.6060   10.8930 C   0  0  0  0  0  0  0  0  0  0  0  0
   19.6730   18.9600    9.8310 N   0  0  0  0  0  0  0  0  0  0  0  0
   19.3200   20.2090   10.0700 C   0  0  0  0  0  0  0  0  0  0  0  0
   19.8470   20.6710   11.2440 N   0  0  0  0  0  0  0  0  0  0  0  0
   19.7260   21.9900   11.8490 C   0  0  1  0  0  0  0  0  0  0  0  0
   18.9740   22.9630   10.9090 C   0  0  1  0  0  0  0  0  0  0  0  0
   17.5260   23.0140   11.4540 C   0  0  1  0  0  0  0  0  0  0  0  0
   17.6020   22.6200   12.9130 C   0  0  2  0  0  0  0  0  0  0  0  0
   18.5950   23.3080   13.8380 C   0  0  0  0  0  0  0  0  0  0  0  0
   18.9600   22.0150   13.1520 C   0  0  2  0  0  0  0  0  0  0  0  0
   16.4030   21.9740   13.5110 C   0  0  0  0  0  0  0  0  0  0  0  0
   16.4550   20.8160   13.8970 O   0  0  0  0  0  0  0  0  0  0  0  0
   15.3010   22.7860   13.5400 N   0  0  0  0  0  0  0  0  0  0  0  0
   14.0140   22.2790   13.9370 C   0  0  0  0  0  0  0  0  0  0  0  0
   19.5500   24.2840   10.9610 O   0  0  0  0  0  0  0  0  0  0  0  0
   16.9750   24.3220   11.3350 O   0  0  0  0  0  0  0  0  0  0  0  0
   21.0430   16.2790   10.3320 N   0  0  0  0  0  0  0  0  0  0  0  0
   22.0240   16.4910    8.1160 C   0  0  0  0  0  0  0  0  0  0  0  0
   22.2280   15.9780    9.5330 C   0  0  0  0  0  0  0  0  0  0  0  0
   22.7300   18.5320   14.3590 C   0  0  0  0  0  0  0  0  0  0  0  0
   23.3740   18.5300   15.3740 C   0  0  0  0  0  0  0  0  0  0  0  0
   24.1390   18.5260   16.5770 C   0  0  0  0  0  0  0  0  0  0  0  0
   25.2080   17.6910   16.8310 C   0  0  0  0  0  0  0  0  0  0  0  0
   25.7750   17.9230   18.1220 C   0  0  0  0  0  0  0  0  0  0  0  0
   25.1050   18.9210   18.7810 C   0  0  0  0  0  0  0  0  0  0  0  0
   25.4480   19.5210   20.3530 Cl  0  0  0  0  0  0  0  0  0  0  0  0
   23.8260   19.5790   17.8900 S   0  0  0  0  0  0  0  0  0  0  0  0
  1  2  1  0
  2  3  2  0
  3 25  1  0
  4  3  1  0
  5  4  2  0
  6  1  2  0
  6  5  1  0
  7  8  2  0
  7  6  1  0
  8  9  1  0
  9  5  1  0
 10  9  1  6
 10 15  1  0
 11 20  1  1
 11 12  1  0
 11 10  1  0
 12 21  1  1
 12 13  1  0
 13 15  1  0
 13 16  1  1
 13 14  1  0
 15 14  1  1
 16 18  1  0
 16 17  2  0
 18 19  1  0
 22  1  1  0
 23 24  1  0
 24 22  1  0
 25 26  3  0
 26 27  1  0
 27 28  2  0
 27 32  1  0
 28 29  1  0
 29 30  2  0
 30 31  1  0
 32 30  1  0
M  END
$$$$
