lig_102
     RDKit          3D

 23 25  0  0  1  0  0  0  0  0999 V2000
    0.3150  -16.1670   12.5200 N   0  0  0  0  0  0  0  0  0  0  0  0
    0.3780  -14.9820   11.6270 C   0  0  1  0  0  0  0  0  0  0  0  0
    0.3870  -15.3770   10.1380 C   0  0  0  0  0  0  0  0  0  0  0  0
    0.7230  -14.1670    9.2670 C   0  0  0  0  0  0  0  0  0  0  0  0
   -0.0930  -12.9460    9.6030 C   0  0  0  0  0  0  0  0  0  0  0  0
   -0.1600  -11.8940    8.6740 C   0  0  0  0  0  0  0  0  0  0  0  0
   -0.8790  -10.7330    8.9590 C   0  0  0  0  0  0  0  0  0  0  0  0
   -1.5300  -10.6190   10.1820 C   0  0  0  0  0  0  0  0  0  0  0  0
   -1.4650  -11.6430   11.1200 C   0  0  0  0  0  0  0  0  0  0  0  0
   -0.7370  -12.8110   10.8450 C   0  0  0  0  0  0  0  0  0  0  0  0
   -0.7120  -13.9140   11.8800 C   0  0  0  0  0  0  0  0  0  0  0  0
   -2.2480   -9.5060   10.5030 O   0  0  0  0  0  0  0  0  0  0  0  0
    1.1430  -16.0690   13.7350 C   0  0  0  0  0  0  0  0  0  0  0  0
    2.3320  -17.9980   14.9200 C   0  0  0  0  0  0  0  0  0  0  0  0
    2.2970  -17.0790   13.7070 C   0  0  0  0  0  0  0  0  0  0  0  0
    0.5440  -17.4570   11.8360 C   0  0  0  0  0  0  0  0  0  0  0  0
   -0.6030  -18.4720   11.9810 C   0  0  0  0  0  0  0  0  0  0  0  0
   -0.1750  -19.6810   12.7800 C   0  0  0  0  0  0  0  0  0  0  0  0
    0.9750  -20.3980   12.4220 C   0  0  0  0  0  0  0  0  0  0  0  0
    1.3810  -21.5030   13.1720 C   0  0  0  0  0  0  0  0  0  0  0  0
    0.6460  -21.8960   14.2890 C   0  0  0  0  0  0  0  0  0  0  0  0
   -0.4940  -21.1850   14.6580 C   0  0  0  0  0  0  0  0  0  0  0  0
   -0.9030  -20.0810   13.9090 C   0  0  0  0  0  0  0  0  0  0  0  0
  1 13  1  0
  2 11  1  0
  2  1  1  1
  3  2  1  0
  4  5  1  0
  4  3  1  0
  5 10  2  0
  6  7  2  0
  6  5  1  0
  7  8  1  0
  8 12  1  0
  8  9  2  0
 10  9  1  0
 10 11  1  0
 15 13  1  0
 15 14  1  0
 16 17  1  0
 16  1  1  0
 17 18  1  0
 18 23  1  0
 19 18  2  0
 19 20  1  0
 20 21  2  0
 21 22  1  0
 23 22  2  0
M  END
$$$$
