lig_061
     RDKit          3D

 30 33  0  0  0  0  0  0  0  0999 V2000
   -4.7960   12.1880    7.0600 C   0  0  0  0  0  0  0  0  0  0  0  0
   -5.5020   13.2450    7.8710 C   0  0  0  0  0  0  0  0  0  0  0  0
   -6.5010   13.8010    7.4310 O   0  0  0  0  0  0  0  0  0  0  0  0
   -4.8710   13.4800    9.0760 N   0  0  0  0  0  0  0  0  0  0  0  0
   -5.2830   14.4070   10.0480 C   0  0  0  0  0  0  0  0  0  0  0  0
   -4.5130   14.5030   11.1850 C   0  0  0  0  0  0  0  0  0  0  0  0
   -4.9080   15.4150   12.1450 C   0  0  0  0  0  0  0  0  0  0  0  0
   -6.0040   16.1790   11.9700 N   0  0  0  0  0  0  0  0  0  0  0  0
   -6.7100   16.0280   10.8290 C   0  0  0  0  0  0  0  0  0  0  0  0
   -7.8840   16.8530   10.6520 N   0  0  0  0  0  0  0  0  0  0  0  0
   -8.2530   17.7520   11.6200 N   0  0  0  0  0  0  0  0  0  0  0  0
   -9.3560   18.3400   11.1560 C   0  0  0  0  0  0  0  0  0  0  0  0
  -10.0380   19.3820   11.9600 C   0  0  0  0  0  0  0  0  0  0  0  0
   -9.7230   17.8420    9.8930 C   0  0  0  0  0  0  0  0  0  0  0  0
   -8.7730   16.8920    9.5800 C   0  0  0  0  0  0  0  0  0  0  0  0
   -8.6630   16.0470    8.3630 C   0  0  0  0  0  0  0  0  0  0  0  0
   -6.3740   15.1570    9.8600 N   0  0  0  0  0  0  0  0  0  0  0  0
   -4.1560   15.6070   13.4060 C   0  0  0  0  0  0  0  0  0  0  0  0
   -3.9540   16.8650   13.9690 C   0  0  0  0  0  0  0  0  0  0  0  0
   -3.2340   16.9660   15.1500 C   0  0  0  0  0  0  0  0  0  0  0  0
   -2.7280   15.8100   15.7330 C   0  0  0  0  0  0  0  0  0  0  0  0
   -2.9450   14.5720   15.1300 C   0  0  0  0  0  0  0  0  0  0  0  0
   -3.6630   14.4770   13.9890 N   0  0  0  0  0  0  0  0  0  0  0  0
   -2.4370   13.4070   15.7380 N   0  0  0  0  0  0  0  0  0  0  0  0
   -2.3470   12.2650   14.8170 C   0  0  0  0  0  0  0  0  0  0  0  0
   -1.8130   11.0080   15.5030 C   0  0  0  0  0  0  0  0  0  0  0  0
   -0.3410   11.0870   15.9140 C   0  0  0  0  0  0  0  0  0  0  0  0
    0.3300   12.1830   15.3080 O   0  0  0  0  0  0  0  0  0  0  0  0
    0.0860   13.4580   15.9230 C   0  0  0  0  0  0  0  0  0  0  0  0
   -1.2780   13.6570   16.6150 C   0  0  0  0  0  0  0  0  0  0  0  0
  1  2  1  0
  2  4  1  0
  3  2  2  0
  4  5  1  0
  5  6  2  0
  6  7  1  0
  7 18  1  0
  8  7  2  0
  9  8  1  0
 10  9  1  0
 10 11  1  0
 12 11  2  0
 12 13  1  0
 14 12  1  0
 15 14  2  0
 15 10  1  0
 16 15  1  0
 17  5  1  0
 17  9  2  0
 18 19  1  0
 18 23  2  0
 19 20  2  0
 20 21  1  0
 22 21  2  0
 22 24  1  0
 23 22  1  0
 24 30  1  0
 25 26  1  0
 25 24  1  0
 26 27  1  0
 28 27  1  0
 28 29  1  0
 29 30  1  0
M  END
$$$$
