lig_004
     RDKit          3D

 33 37  0  0  0  0  0  0  0  0999 V2000
  122.7300  140.7210  108.8510 N   0  0  0  0  0  0  0  0  0  0  0  0
  123.2470  141.2960  110.1030 C   0  0  0  0  0  0  0  0  0  0  0  0
  122.0990  141.7290  111.0470 C   0  0  0  0  0  0  0  0  0  0  0  0
  121.0930  140.6940  111.3720 N   0  0  0  0  0  0  0  0  0  0  0  0
  121.0640  139.6400  110.3330 C   0  0  0  0  0  0  0  0  0  0  0  0
  121.3740  140.1510  108.9080 C   0  0  0  0  0  0  0  0  0  0  0  0
  124.9090  141.0040  105.1890 C   0  0  0  0  0  0  0  0  0  0  0  0
  125.3670  141.6040  106.3690 C   0  0  0  0  0  0  0  0  0  0  0  0
  124.6440  141.5120  107.5720 C   0  0  0  0  0  0  0  0  0  0  0  0
  123.4330  140.8160  107.6630 C   0  0  0  0  0  0  0  0  0  0  0  0
  122.9860  140.2150  106.4810 C   0  0  0  0  0  0  0  0  0  0  0  0
  123.7010  140.3070  105.2720 C   0  0  0  0  0  0  0  0  0  0  0  0
  126.5050  138.8710  104.0400 O   0  0  0  0  0  0  0  0  0  0  0  0
  126.4260  139.9800  103.5130 C   0  0  0  0  0  0  0  0  0  0  0  0
  127.1830  140.1580  102.2380 C   0  0  0  0  0  0  0  0  0  0  0  0
  127.1210  141.3020  101.5520 C   0  0  0  0  0  0  0  0  0  0  0  0
  126.3330  142.3910  102.0480 C   0  0  0  0  0  0  0  0  0  0  0  0
  125.6540  142.2630  103.1940 C   0  0  0  0  0  0  0  0  0  0  0  0
  125.6690  141.0920  103.9570 N   0  0  0  0  0  0  0  0  0  0  0  0
  121.2700  140.1030  112.7020 C   0  0  0  0  0  0  0  0  0  0  0  0
  122.1930  138.8750  112.7260 C   0  0  0  0  0  0  0  0  0  0  0  0
  123.5100  139.0620  113.4880 C   0  0  0  0  0  0  0  0  0  0  0  0
  124.7430  139.2240  112.5960 C   0  0  0  0  0  0  0  0  0  0  0  0
  125.2460  137.9040  112.0930 C   0  0  0  0  0  0  0  0  0  0  0  0
  125.5680  136.8040  112.8630 C   0  0  0  0  0  0  0  0  0  0  0  0
  125.9890  135.8020  112.0320 N   0  0  0  0  0  0  0  0  0  0  0  0
  125.9480  136.2210  110.7220 C   0  0  0  0  0  0  0  0  0  0  0  0
  126.2840  135.5360  109.5460 C   0  0  0  0  0  0  0  0  0  0  0  0
  126.1400  136.2230  108.3390 C   0  0  0  0  0  0  0  0  0  0  0  0
  125.6820  137.5340  108.3230 C   0  0  0  0  0  0  0  0  0  0  0  0
  125.5530  138.1670  107.1490 F   0  0  0  0  0  0  0  0  0  0  0  0
  125.3500  138.2090  109.4970 C   0  0  0  0  0  0  0  0  0  0  0  0
  125.4860  137.5390  110.7280 C   0  0  0  0  0  0  0  0  0  0  0  0
  1  6  1  0
  1  2  1  0
  2  3  1  0
  3  4  1  0
  4 20  1  0
  5  4  1  0
  6  5  1  0
  7 12  2  0
  7  8  1  0
  8  9  2  0
  9 10  1  0
 10  1  1  0
 11 10  2  0
 12 11  1  0
 14 19  1  0
 14 13  2  0
 15 14  1  0
 16 17  1  0
 16 15  2  0
 17 18  2  0
 18 19  1  0
 19  7  1  0
 20 21  1  0
 21 22  1  0
 23 22  1  0
 24 23  1  0
 24 25  2  0
 26 25  1  0
 27 33  2  0
 27 26  1  0
 28 27  1  0
 29 28  2  0
 30 29  1  0
 30 32  2  0
 31 30  1  0
 32 33  1  0
 33 24  1  0
M  END
$$$$
