lig_343
     RDKit          3D

 25 27  0  0  1  0  0  0  0  0999 V2000
   -6.0640    3.2920   16.3730 C   0  0  0  0  0  0  0  0  0  0  0  0
   -5.1110    4.4330   16.4660 C   0  0  0  0  0  0  0  0  0  0  0  0
   -5.3080    5.7500   16.1140 C   0  0  0  0  0  0  0  0  0  0  0  0
   -4.1580    6.5590   16.3500 C   0  0  0  0  0  0  0  0  0  0  0  0
   -4.0870    7.8850   16.0920 N   0  0  0  0  0  0  0  0  0  0  0  0
   -2.9320    8.4790   16.3730 C   0  0  0  0  0  0  0  0  0  0  0  0
   -2.8780    9.8310   16.1160 N   0  0  0  0  0  0  0  0  0  0  0  0
   -1.8630    7.8650   16.8850 N   0  0  0  0  0  0  0  0  0  0  0  0
   -1.9310    6.5310   17.1500 C   0  0  0  0  0  0  0  0  0  0  0  0
   -3.0990    5.8340   16.8820 C   0  0  0  0  0  0  0  0  0  0  0  0
   -3.5370    4.1840   17.0800 S   0  0  0  0  0  0  0  0  0  0  0  0
   -0.6980    5.9160   17.7200 C   0  0  0  0  0  0  0  0  0  0  0  0
    0.4110    6.4260   17.6290 O   0  0  0  0  0  0  0  0  0  0  0  0
   -0.9190    4.7200   18.3750 N   0  0  0  0  0  0  0  0  0  0  0  0
    0.1420    3.9830   19.0220 C   0  0  0  0  0  0  0  0  0  0  0  0
   -0.0940    2.4740   19.0210 C   0  0  0  0  0  0  0  0  0  0  0  0
    1.1470    1.7750   19.0320 O   0  0  0  0  0  0  0  0  0  0  0  0
   -1.6170   10.3950   15.6480 C   0  0  1  0  0  0  0  0  0  0  0  0
   -1.5300   10.3990   14.1190 C   0  0  0  0  0  0  0  0  0  0  0  0
   -1.5190   11.8270   16.1720 C   0  0  0  0  0  0  0  0  0  0  0  0
   -2.6170   12.4280   16.7860 C   0  0  0  0  0  0  0  0  0  0  0  0
   -2.5060   13.7420   17.2310 C   0  0  0  0  0  0  0  0  0  0  0  0
   -1.3100   14.4260   17.0460 C   0  0  0  0  0  0  0  0  0  0  0  0
   -0.2700   13.7650   16.4170 C   0  0  0  0  0  0  0  0  0  0  0  0
   -0.3450   12.4910   15.9760 N   0  0  0  0  0  0  0  0  0  0  0  0
  1  2  1  0
  2 11  1  0
  3  4  1  0
  3  2  2  0
  4 10  1  0
  5  4  2  0
  5  6  1  0
  6  8  2  0
  7  6  1  0
  8  9  1  0
  9 12  1  0
 10 11  1  0
 10  9  2  0
 12 14  1  0
 13 12  2  0
 14 15  1  0
 16 15  1  0
 16 17  1  0
 18 19  1  6
 18  7  1  0
 18 20  1  0
 20 21  2  0
 21 22  1  0
 23 22  2  0
 24 23  1  0
 25 20  1  0
 25 24  2  0
M  END
$$$$
