lig_017
     RDKit          3D

 25 28  0  0  0  0  0  0  0  0999 V2000
   -3.1720    6.9750   16.6320 C   0  0  0  0  0  0  0  0  0  0  0  0
   -4.5120    6.9950   16.3820 C   0  0  0  0  0  0  0  0  0  0  0  0
   -5.1950    8.0740   15.8300 N   0  0  0  0  0  0  0  0  0  0  0  0
   -4.5380    9.1710   15.5860 C   0  0  0  0  0  0  0  0  0  0  0  0
   -5.1880   10.2520   15.0490 N   0  0  0  0  0  0  0  0  0  0  0  0
   -3.1750    9.2360   15.8630 N   0  0  0  0  0  0  0  0  0  0  0  0
   -2.2830   10.2590   15.7300 C   0  0  0  0  0  0  0  0  0  0  0  0
   -1.0860    9.8480   16.0850 N   0  0  0  0  0  0  0  0  0  0  0  0
   -1.1980    8.5330   16.4840 N   0  0  0  0  0  0  0  0  0  0  0  0
   -2.4620    8.1790   16.3600 C   0  0  0  0  0  0  0  0  0  0  0  0
   -2.8110    2.0100   17.2280 C   0  0  0  0  0  0  0  0  0  0  0  0
   -2.2990    3.3980   17.4650 C   0  0  0  0  0  0  0  0  0  0  0  0
   -2.9720    4.4930   16.9290 C   0  0  0  0  0  0  0  0  0  0  0  0
   -2.4810    5.7790   17.1730 C   0  0  0  0  0  0  0  0  0  0  0  0
   -1.3150    5.9240   17.9230 C   0  0  0  0  0  0  0  0  0  0  0  0
   -0.7180    4.7780   18.4110 C   0  0  0  0  0  0  0  0  0  0  0  0
    0.7080    4.8660   19.3610 Cl  0  0  0  0  0  0  0  0  0  0  0  0
   -1.1790    3.5270   18.2100 N   0  0  0  0  0  0  0  0  0  0  0  0
   -5.3740    5.8240   16.6700 C   0  0  0  0  0  0  0  0  0  0  0  0
   -5.4240    4.7530   15.7660 C   0  0  0  0  0  0  0  0  0  0  0  0
   -6.2250    3.6390   16.0310 C   0  0  0  0  0  0  0  0  0  0  0  0
   -6.9890    3.5870   17.1970 C   0  0  0  0  0  0  0  0  0  0  0  0
   -6.9610    4.6530   18.0940 C   0  0  0  0  0  0  0  0  0  0  0  0
   -6.1630    5.7630   17.8250 C   0  0  0  0  0  0  0  0  0  0  0  0
   -6.1640    6.7800   18.7000 F   0  0  0  0  0  0  0  0  0  0  0  0
  1 14  1  0
  2  1  2  0
  2 19  1  0
  3  2  1  0
  4  3  2  0
  4  6  1  0
  5  4  1  0
  6 10  1  0
  7  6  1  0
  7  8  2  0
  8  9  1  0
 10  9  2  0
 10  1  1  0
 11 12  1  0
 12 18  2  0
 13 14  2  0
 13 12  1  0
 14 15  1  0
 15 16  2  0
 16 17  1  0
 18 16  1  0
 19 24  1  0
 20 21  1  0
 20 19  2  0
 21 22  2  0
 22 23  1  0
 24 23  2  0
 24 25  1  0
M  END
$$$$
