lig_123
     RDKit          3D

 27 30  0  0  0  0  0  0  0  0999 V2000
    1.5690  -15.8500   13.8010 O   0  0  0  0  0  0  0  0  0  0  0  0
    0.9880  -16.1830   12.7680 C   0  0  0  0  0  0  0  0  0  0  0  0
    0.5680  -17.4950   12.5710 N   0  0  0  0  0  0  0  0  0  0  0  0
   -0.5880  -17.8990   11.7730 C   0  0  0  0  0  0  0  0  0  0  0  0
   -0.3530  -19.2530   11.0660 C   0  0  0  0  0  0  0  0  0  0  0  0
    0.4400  -20.2240   11.8390 N   0  0  0  0  0  0  0  0  0  0  0  0
    0.4660  -19.9130   13.2720 C   0  0  0  0  0  0  0  0  0  0  0  0
    1.0310  -18.5000   13.5330 C   0  0  0  0  0  0  0  0  0  0  0  0
    0.7380  -15.2020   11.7320 C   0  0  0  0  0  0  0  0  0  0  0  0
   -0.2440  -14.2370   11.5800 C   0  0  0  0  0  0  0  0  0  0  0  0
   -0.0330  -13.5700   10.3420 C   0  0  0  0  0  0  0  0  0  0  0  0
   -0.6840  -12.5130    9.6760 C   0  0  0  0  0  0  0  0  0  0  0  0
   -0.2060  -12.0950    8.4260 C   0  0  0  0  0  0  0  0  0  0  0  0
    0.8930  -12.7210    7.8460 C   0  0  0  0  0  0  0  0  0  0  0  0
    1.4550  -12.1870    6.3070 Cl  0  0  0  0  0  0  0  0  0  0  0  0
    1.5510  -13.7780    8.4810 C   0  0  0  0  0  0  0  0  0  0  0  0
    1.0620  -14.1780    9.7320 C   0  0  0  0  0  0  0  0  0  0  0  0
    1.4830  -15.1810   10.5720 N   0  0  0  0  0  0  0  0  0  0  0  0
    0.1490  -21.6290   11.5220 C   0  0  0  0  0  0  0  0  0  0  0  0
   -0.9160  -22.3520   12.3730 C   0  0  0  0  0  0  0  0  0  0  0  0
   -0.2860  -23.3380   13.1940 O   0  0  0  0  0  0  0  0  0  0  0  0
   -1.0500  -23.9260   14.1580 C   0  0  0  0  0  0  0  0  0  0  0  0
   -0.6040  -24.7630   15.1770 C   0  0  0  0  0  0  0  0  0  0  0  0
   -1.5230  -25.2860   16.0880 C   0  0  0  0  0  0  0  0  0  0  0  0
   -2.8600  -24.9530   15.9490 C   0  0  0  0  0  0  0  0  0  0  0  0
   -3.3290  -24.1450   14.9770 N   0  0  0  0  0  0  0  0  0  0  0  0
   -2.4130  -23.6520   14.1090 C   0  0  0  0  0  0  0  0  0  0  0  0
  2  1  2  0
  3  2  1  0
  3  8  1  0
  4  3  1  0
  5  4  1  0
  5  6  1  0
  6  7  1  0
  7  8  1  0
  9  2  1  0
 10  9  2  0
 11 10  1  0
 12 11  1  0
 13 12  2  0
 14 13  1  0
 14 16  2  0
 15 14  1  0
 16 17  1  0
 17 11  2  0
 17 18  1  0
 18  9  1  0
 19  6  1  0
 19 20  1  0
 20 21  1  0
 21 22  1  0
 22 23  2  0
 23 24  1  0
 25 24  2  0
 26 25  1  0
 27 22  1  0
 27 26  2  0
M  END
$$$$
