lig_021
     RDKit          3D

 26 29  0  0  0  0  0  0  0  0999 V2000
   -0.1060  -21.3400   13.7630 N   0  0  0  0  0  0  0  0  0  0  0  0
   -0.8780  -20.0810   13.7130 C   0  0  0  0  0  0  0  0  0  0  0  0
   -0.6430  -19.3650   12.3600 C   0  0  0  0  0  0  0  0  0  0  0  0
    0.7800  -19.1280   12.0010 N   0  0  0  0  0  0  0  0  0  0  0  0
    1.4940  -20.4270   12.1030 C   0  0  0  0  0  0  0  0  0  0  0  0
    1.3260  -21.1680   13.4530 C   0  0  0  0  0  0  0  0  0  0  0  0
   -0.5630  -23.4730   15.0140 C   0  0  0  0  0  0  0  0  0  0  0  0
   -0.7710  -24.0790   16.2620 C   0  0  0  0  0  0  0  0  0  0  0  0
   -0.7480  -23.3220   17.4370 C   0  0  0  0  0  0  0  0  0  0  0  0
   -0.5160  -21.9530   17.3790 C   0  0  0  0  0  0  0  0  0  0  0  0
   -0.3100  -21.3400   16.1450 C   0  0  0  0  0  0  0  0  0  0  0  0
   -0.3300  -22.0780   14.9480 C   0  0  0  0  0  0  0  0  0  0  0  0
   -1.8190  -24.2840   13.1450 C   0  0  0  0  0  0  0  0  0  0  0  0
   -0.5760  -24.1580   13.8230 O   0  0  0  0  0  0  0  0  0  0  0  0
    1.4200  -18.1200   12.8620 C   0  0  0  0  0  0  0  0  0  0  0  0
    0.7850  -16.7860   12.6610 C   0  0  0  0  0  0  0  0  0  0  0  0
    0.1300  -15.9940   13.6220 C   0  0  0  0  0  0  0  0  0  0  0  0
   -0.3230  -14.8430   13.1280 N   0  0  0  0  0  0  0  0  0  0  0  0
    0.0270  -14.8690   11.8130 N   0  0  0  0  0  0  0  0  0  0  0  0
    0.7110  -16.0260   11.5100 C   0  0  0  0  0  0  0  0  0  0  0  0
   -0.3080  -13.7940   10.9440 C   0  0  0  0  0  0  0  0  0  0  0  0
   -1.1250  -12.7530   11.4160 C   0  0  0  0  0  0  0  0  0  0  0  0
   -1.4650  -11.6880   10.5790 C   0  0  0  0  0  0  0  0  0  0  0  0
   -0.9950  -11.6530    9.2690 C   0  0  0  0  0  0  0  0  0  0  0  0
   -0.1830  -12.6820    8.7910 C   0  0  0  0  0  0  0  0  0  0  0  0
    0.1620  -13.7510    9.6230 C   0  0  0  0  0  0  0  0  0  0  0  0
  1 12  1  0
  2  1  1  0
  3  2  1  0
  4  5  1  0
  4  3  1  0
  4 15  1  0
  5  6  1  0
  6  1  1  0
  7  8  2  0
  8  9  1  0
 10  9  2  0
 11 10  1  0
 12  7  1  0
 12 11  2  0
 13 14  1  0
 14  7  1  0
 16 15  1  0
 16 17  1  0
 18 17  2  0
 19 18  1  0
 20 19  1  0
 20 16  2  0
 21 22  2  0
 21 19  1  0
 23 22  1  0
 24 23  2  0
 25 24  1  0
 25 26  2  0
 26 21  1  0
M  END
$$$$
