lig_015
     RDKit          3D

 30 34  0  0  0  0  0  0  0  0999 V2000
   12.6730    0.9760   58.7050 C   0  0  0  0  0  0  0  0  0  0  0  0
   12.4280    1.1860   60.1430 N   0  0  0  0  0  0  0  0  0  0  0  0
   11.0080    1.5170   60.4090 C   0  0  0  0  0  0  0  0  0  0  0  0
   10.5560    1.2430   61.8620 C   0  0  0  0  0  0  0  0  0  0  0  0
   10.7350   -0.1760   62.2350 N   0  0  0  0  0  0  0  0  0  0  0  0
    9.6760   -0.8770   62.7580 C   0  0  0  0  0  0  0  0  0  0  0  0
    9.3120   -2.0740   62.2980 N   0  0  0  0  0  0  0  0  0  0  0  0
    7.9870   -2.6110   63.1100 S   0  0  0  0  0  0  0  0  0  0  0  0
    7.8670   -1.2860   64.1900 C   0  0  0  0  0  0  0  0  0  0  0  0
    6.9400   -1.0670   65.2240 C   0  0  0  0  0  0  0  0  0  0  0  0
    7.0670    0.0890   65.9970 C   0  0  0  0  0  0  0  0  0  0  0  0
    8.0910    0.9940   65.7500 C   0  0  0  0  0  0  0  0  0  0  0  0
    9.0040    0.7650   64.7150 C   0  0  0  0  0  0  0  0  0  0  0  0
    8.8950   -0.3880   63.8930 C   0  0  0  0  0  0  0  0  0  0  0  0
   11.7030   -0.9130   61.4000 C   0  0  0  0  0  0  0  0  0  0  0  0
   12.8500    0.0130   60.9460 C   0  0  0  0  0  0  0  0  0  0  0  0
   13.3500   -0.3640   58.3150 C   0  0  0  0  0  0  0  0  0  0  0  0
   20.7660   -1.5170   58.5870 C   0  0  0  0  0  0  0  0  0  0  0  0
   19.4050   -1.0620   58.2000 C   0  0  0  0  0  0  0  0  0  0  0  0
   18.2290   -1.1510   58.9100 C   0  0  0  0  0  0  0  0  0  0  0  0
   17.1660   -0.5720   58.1460 C   0  0  0  0  0  0  0  0  0  0  0  0
   17.7570   -0.1100   56.9710 C   0  0  0  0  0  0  0  0  0  0  0  0
   19.1030   -0.4470   57.0090 N   0  0  0  0  0  0  0  0  0  0  0  0
   20.0550   -0.1620   55.9520 C   0  0  0  0  0  0  0  0  0  0  0  0
   17.1950    0.6220   55.7980 C   0  0  0  0  0  0  0  0  0  0  0  0
   15.7750    1.1130   55.9950 C   0  0  0  0  0  0  0  0  0  0  0  0
   14.8430   -0.0340   56.3480 C   0  0  0  0  0  0  0  0  0  0  0  0
   14.7160   -0.2310   57.7840 N   0  0  0  0  0  0  0  0  0  0  0  0
   15.7820   -0.5060   58.6460 C   0  0  0  0  0  0  0  0  0  0  0  0
   15.5810   -0.7080   59.8480 O   0  0  0  0  0  0  0  0  0  0  0  0
  1  2  1  0
  2  3  1  0
  2 16  1  0
  3  4  1  0
  4  5  1  0
  5  6  1  0
  6 14  1  0
  7  6  2  0
  7  8  1  0
  8  9  1  0
  9 10  2  0
 10 11  1  0
 12 11  2  0
 13 12  1  0
 14  9  1  0
 14 13  2  0
 15  5  1  0
 16 15  1  0
 17  1  1  0
 19 18  1  0
 19 20  2  0
 21 29  1  0
 21 20  1  0
 22 23  1  0
 22 21  2  0
 23 19  1  0
 24 23  1  0
 25 26  1  0
 25 22  1  0
 26 27  1  0
 27 28  1  0
 28 17  1  0
 28 29  1  0
 29 30  2  0
M  END
$$$$
