lig_261
     RDKit          3D

 33 37  0  0  1  0  0  0  0  0999 V2000
    1.1740  -17.5290   14.3310 C   0  0  0  0  0  0  0  0  0  0  0  0
   -1.7800  -10.7440   11.4460 C   0  0  0  0  0  0  0  0  0  0  0  0
   -0.8880  -11.6330   10.6340 C   0  0  0  0  0  0  0  0  0  0  0  0
   -0.3220  -11.1590    9.4620 C   0  0  0  0  0  0  0  0  0  0  0  0
    0.4610  -12.0500    8.7730 C   0  0  0  0  0  0  0  0  0  0  0  0
    0.6980  -13.3300    9.2380 C   0  0  0  0  0  0  0  0  0  0  0  0
    0.1310  -13.7460   10.4270 C   0  0  0  0  0  0  0  0  0  0  0  0
    0.3460  -15.0330   10.9250 N   0  0  0  0  0  0  0  0  0  0  0  0
    1.7570  -15.3810   11.1950 C   0  0  0  0  0  0  0  0  0  0  0  0
    1.9620  -15.9310   12.6280 C   0  0  0  0  0  0  0  0  0  0  0  0
    1.0940  -17.0780   12.9410 N   0  0  0  0  0  0  0  0  0  0  0  0
   -0.2840  -16.8860   12.4420 C   0  0  0  0  0  0  0  0  0  0  0  0
   -0.6090  -15.4510   11.9660 C   0  0  0  0  0  0  0  0  0  0  0  0
   -0.6790  -12.8970   11.1040 N   0  0  0  0  0  0  0  0  0  0  0  0
    1.5920  -14.0250    8.2860 C   0  0  0  0  0  0  0  0  0  0  0  0
    1.4690  -13.0760    7.0970 C   0  0  0  0  0  0  0  0  0  0  0  0
    1.0750  -11.7690    7.5780 O   0  0  0  0  0  0  0  0  0  0  0  0
   -0.0610  -18.2640   14.8820 C   0  0  0  0  0  0  0  0  0  0  0  0
   -0.0370  -19.7780   14.5820 C   0  0  1  0  0  0  0  0  0  0  0  0
   -0.7900  -20.0810   13.2810 C   0  0  0  0  0  0  0  0  0  0  0  0
   -0.9140  -21.5860   13.0220 C   0  0  0  0  0  0  0  0  0  0  0  0
    0.2980  -22.4080   13.4970 C   0  0  1  0  0  0  0  0  0  0  0  0
    1.5570  -21.5480   13.5930 C   0  0  0  0  0  0  0  0  0  0  0  0
    1.3980  -20.3350   14.5170 C   0  0  0  0  0  0  0  0  0  0  0  0
    0.0320  -23.0650   14.7740 N   0  0  0  0  0  0  0  0  0  0  0  0
   -0.6700  -24.2520   14.8450 C   0  0  0  0  0  0  0  0  0  0  0  0
   -1.0500  -24.8640   13.8530 O   0  0  0  0  0  0  0  0  0  0  0  0
   -0.9320  -24.7240   16.2750 C   0  0  0  0  0  0  0  0  0  0  0  0
   -1.0500  -23.5460   17.2500 C   0  0  0  0  0  0  0  0  0  0  0  0
   -2.4020  -22.8480   17.1430 C   0  0  0  0  0  0  0  0  0  0  0  0
   -3.4640  -23.7890   17.2980 O   0  0  0  0  0  0  0  0  0  0  0  0
   -3.4550  -24.7750   16.2680 C   0  0  0  0  0  0  0  0  0  0  0  0
   -2.1820  -25.6080   16.3510 C   0  0  0  0  0  0  0  0  0  0  0  0
  1 18  1  0
  3 14  1  0
  3  2  1  0
  4  3  2  0
  5  6  2  0
  5  4  1  0
  6  7  1  0
  7  8  1  0
  7 14  2  0
  8  9  1  0
  8 13  1  0
  9 10  1  0
 10 11  1  0
 11  1  1  0
 12 11  1  0
 13 12  1  0
 15  6  1  0
 16 17  1  0
 16 15  1  0
 17  5  1  0
 19 18  1  6
 20 19  1  0
 21 20  1  0
 21 22  1  0
 22 23  1  0
 22 25  1  1
 23 24  1  0
 24 19  1  0
 25 26  1  0
 26 28  1  0
 27 26  2  0
 28 33  1  0
 28 29  1  0
 30 29  1  0
 30 31  1  0
 32 33  1  0
 32 31  1  0
M  END
$$$$
