lig_013
     RDKit          3D

 22 23  0  0  0  0  0  0  0  0999 V2000
  125.9540  138.0300  106.7380 N   0  0  0  0  0  0  0  0  0  0  0  0
  125.7540  137.8050  104.0500 O   0  0  0  0  0  0  0  0  0  0  0  0
  126.0820  138.8960  104.5190 C   0  0  0  0  0  0  0  0  0  0  0  0
  126.2360  139.1020  105.8740 N   0  0  0  0  0  0  0  0  0  0  0  0
  126.2890  140.0600  103.6150 C   0  0  0  0  0  0  0  0  0  0  0  0
  127.1640  139.9990  102.5190 C   0  0  0  0  0  0  0  0  0  0  0  0
  127.3440  141.1180  101.6990 C   0  0  0  0  0  0  0  0  0  0  0  0
  126.6510  142.2990  101.9590 C   0  0  0  0  0  0  0  0  0  0  0  0
  125.7650  142.3630  103.0330 C   0  0  0  0  0  0  0  0  0  0  0  0
  125.5790  141.2490  103.8500 C   0  0  0  0  0  0  0  0  0  0  0  0
  124.6760  141.3970  104.8700 O   0  0  0  0  0  0  0  0  0  0  0  0
  124.6890  137.8460  107.2300 C   0  0  0  0  0  0  0  0  0  0  0  0
  123.9510  136.3500  107.4170 S   0  0  0  0  0  0  0  0  0  0  0  0
  123.9700  138.9570  107.5730 N   0  0  0  0  0  0  0  0  0  0  0  0
  123.9610  139.7490  108.7400 C   0  0  0  0  0  0  0  0  0  0  0  0
  123.7520  141.1290  108.7510 C   0  0  0  0  0  0  0  0  0  0  0  0
  123.7780  141.8420  109.9570 C   0  0  0  0  0  0  0  0  0  0  0  0
  124.0290  141.1840  111.1610 C   0  0  0  0  0  0  0  0  0  0  0  0
  124.0470  142.1260  112.6080 Cl  0  0  0  0  0  0  0  0  0  0  0  0
  124.2680  139.8090  111.1560 C   0  0  0  0  0  0  0  0  0  0  0  0
  124.6030  138.9200  112.6000 Cl  0  0  0  0  0  0  0  0  0  0  0  0
  124.2420  139.1000  109.9480 C   0  0  0  0  0  0  0  0  0  0  0  0
  1 12  1  0
  2  3  2  0
  3  4  1  0
  4  1  1  0
  5 10  1  0
  5  3  1  0
  6  5  2  0
  7  8  2  0
  7  6  1  0
  8  9  1  0
  9 10  2  0
 10 11  1  0
 12 13  2  0
 12 14  1  0
 14 15  1  0
 15 16  1  0
 15 22  2  0
 16 17  2  0
 17 18  1  0
 18 19  1  0
 20 18  2  0
 20 21  1  0
 22 20  1  0
M  END
$$$$
