lig_079
     RDKit          3D

 20 23  0  0  0  0  0  0  0  0999 V2000
   -3.4200    5.1760   17.4400 N   0  0  0  0  0  0  0  0  0  0  0  0
   -2.1610    4.7220   17.8510 C   0  0  0  0  0  0  0  0  0  0  0  0
   -1.7420    3.2400   18.4850 S   0  0  0  0  0  0  0  0  0  0  0  0
   -0.9770    6.0250   17.5830 S   0  0  0  0  0  0  0  0  0  0  0  0
   -2.2010    7.0340   16.9350 C   0  0  0  0  0  0  0  0  0  0  0  0
   -3.4170    6.4580   16.9210 C   0  0  0  0  0  0  0  0  0  0  0  0
   -4.5710    7.0500   16.4420 N   0  0  0  0  0  0  0  0  0  0  0  0
   -4.4420    8.2630   15.9750 C   0  0  0  0  0  0  0  0  0  0  0  0
   -3.2040    8.9000   15.9700 N   0  0  0  0  0  0  0  0  0  0  0  0
   -3.0050   10.1410   15.5050 N   0  0  0  0  0  0  0  0  0  0  0  0
   -1.6860   10.2880   15.7150 C   0  0  0  0  0  0  0  0  0  0  0  0
   -1.0640    9.1950   16.2880 N   0  0  0  0  0  0  0  0  0  0  0  0
   -2.0480    8.3370   16.4360 C   0  0  0  0  0  0  0  0  0  0  0  0
   -0.9070   11.5900   15.3440 C   0  0  0  0  0  0  0  0  0  0  0  0
   -1.4220   12.6540   14.6290 C   0  0  0  0  0  0  0  0  0  0  0  0
   -0.3870   13.6140   14.5220 C   0  0  0  0  0  0  0  0  0  0  0  0
    0.6960   13.0790   15.1790 C   0  0  0  0  0  0  0  0  0  0  0  0
    0.3920   11.8550   15.6800 O   0  0  0  0  0  0  0  0  0  0  0  0
   -4.7820    3.4940   16.2360 C   0  0  0  0  0  0  0  0  0  0  0  0
   -4.6470    4.3750   17.4690 C   0  0  0  0  0  0  0  0  0  0  0  0
  1 20  1  0
  1  2  1  0
  2  3  2  0
  4  2  1  0
  5  4  1  0
  6  5  2  0
  6  1  1  0
  7  6  1  0
  8  7  2  0
  9  8  1  0
  9 13  1  0
 10 11  2  0
 10  9  1  0
 11 12  1  0
 12 13  2  0
 13  5  1  0
 14 18  1  0
 14 11  1  0
 15 14  2  0
 16 15  1  0
 16 17  2  0
 17 18  1  0
 19 20  1  0
M  END
$$$$
