lig_014
     RDKit          3D

 27 31  0  0  1  0  0  0  0  0999 V2000
  125.2900  137.5950  105.6750 N   0  0  0  0  0  0  0  0  0  0  0  0
  126.6150  137.1610  106.1700 C   0  0  0  0  0  0  0  0  0  0  0  0
  126.8320  137.2440  107.7030 C   0  0  0  0  0  0  0  0  0  0  0  0
  125.7760  136.5220  108.4240 N   0  0  0  0  0  0  0  0  0  0  0  0
  124.4300  136.5750  107.8240 C   0  0  0  0  0  0  0  0  0  0  0  0
  124.3210  137.7170  106.7840 C   0  0  0  0  0  0  0  0  0  0  0  0
  126.5220  139.7590  104.8740 C   0  0  2  0  0  0  0  0  0  0  0  0
  126.4690  140.4040  103.5160 C   0  0  0  0  0  0  0  0  0  0  0  0
  127.1220  141.5550  103.0920 C   0  0  0  0  0  0  0  0  0  0  0  0
  126.9540  141.9600  101.7670 C   0  0  0  0  0  0  0  0  0  0  0  0
  126.1580  141.2090  100.8960 C   0  0  0  0  0  0  0  0  0  0  0  0
  126.0180  141.6120   99.6260 F   0  0  0  0  0  0  0  0  0  0  0  0
  125.5150  140.0470  101.3160 C   0  0  0  0  0  0  0  0  0  0  0  0
  125.6770  139.6570  102.6350 C   0  0  0  0  0  0  0  0  0  0  0  0
  125.1260  138.4320  103.3020 C   0  0  0  0  0  0  0  0  0  0  0  0
  125.2950  138.7860  104.8060 C   0  0  1  0  0  0  0  0  0  0  0  0
  126.3690  140.7170  105.9130 O   0  0  0  0  0  0  0  0  0  0  0  0
  125.9230  136.1510  109.7610 C   0  0  0  0  0  0  0  0  0  0  0  0
  126.4810  134.9000  110.0990 C   0  0  0  0  0  0  0  0  0  0  0  0
  126.6590  134.4900  111.4250 C   0  0  0  0  0  0  0  0  0  0  0  0
  126.2620  135.3170  112.4660 C   0  0  0  0  0  0  0  0  0  0  0  0
  125.6800  136.5450  112.1810 C   0  0  0  0  0  0  0  0  0  0  0  0
  125.5260  136.9750  110.8470 C   0  0  0  0  0  0  0  0  0  0  0  0
  124.9360  138.1910  110.5620 O   0  0  0  0  0  0  0  0  0  0  0  0
  124.9100  139.0630  111.6920 C   0  0  0  0  0  0  0  0  0  0  0  0
  124.3810  138.3250  112.9040 C   0  0  0  0  0  0  0  0  0  0  0  0
  125.2800  137.2770  113.2740 O   0  0  0  0  0  0  0  0  0  0  0  0
  1  2  1  0
  1  6  1  0
  2  3  1  0
  3  4  1  0
  4 18  1  0
  5  4  1  0
  6  5  1  0
  7 17  1  1
  8  7  1  0
  9  8  1  0
 10  9  2  0
 11 13  2  0
 11 10  1  0
 12 11  1  0
 13 14  1  0
 14 15  1  0
 14  8  2  0
 16 15  1  0
 16  7  1  0
 16  1  1  1
 18 19  2  0
 18 23  1  0
 19 20  1  0
 20 21  2  0
 22 21  1  0
 22 27  1  0
 23 22  2  0
 24 23  1  0
 24 25  1  0
 25 26  1  0
 26 27  1  0
M  END
$$$$
