lig_209
     RDKit          3D

 41 47  0  0  0  0  0  0  0  0999 V2000
   -2.1850   12.0410   14.6540 C   0  0  0  0  0  0  0  0  0  0  0  0
   -3.3290   11.5170   15.2560 C   0  0  0  0  0  0  0  0  0  0  0  0
   -3.3150   10.2430   15.8310 C   0  0  0  0  0  0  0  0  0  0  0  0
   -2.1490    9.4700   15.8190 C   0  0  0  0  0  0  0  0  0  0  0  0
   -1.0040   10.0000   15.2100 C   0  0  0  0  0  0  0  0  0  0  0  0
   -1.0210   11.2770   14.6310 C   0  0  0  0  0  0  0  0  0  0  0  0
   -2.1390    8.1370   16.4230 C   0  0  0  0  0  0  0  0  0  0  0  0
   -3.1060    7.1380   16.4250 C   0  0  0  0  0  0  0  0  0  0  0  0
   -2.6010    6.0460   17.1670 C   0  0  0  0  0  0  0  0  0  0  0  0
   -1.3580    6.3910   17.6050 C   0  0  0  0  0  0  0  0  0  0  0  0
   -1.0780    7.6530   17.1650 N   0  0  0  0  0  0  0  0  0  0  0  0
   -0.5270    5.5470   18.3970 C   0  0  0  0  0  0  0  0  0  0  0  0
    0.5930    5.8950   18.7590 O   0  0  0  0  0  0  0  0  0  0  0  0
   -1.1170    4.3180   18.6890 N   0  0  0  0  0  0  0  0  0  0  0  0
   -2.3930    3.9050   18.2610 C   0  0  0  0  0  0  0  0  0  0  0  0
   -2.8380    2.7920   18.5610 O   0  0  0  0  0  0  0  0  0  0  0  0
   -3.1350    4.8050   17.4780 N   0  0  0  0  0  0  0  0  0  0  0  0
   -0.3580    3.3920   19.5150 C   0  0  0  0  0  0  0  0  0  0  0  0
    0.6030    2.6020   18.6700 C   0  0  0  0  0  0  0  0  0  0  0  0
    2.0560    2.5030   19.0630 C   0  0  0  0  0  0  0  0  0  0  0  0
    1.1700    1.2910   19.1510 C   0  0  0  0  0  0  0  0  0  0  0  0
   -4.4750    4.4160   17.0490 C   0  0  0  0  0  0  0  0  0  0  0  0
   -5.4730    4.6500   18.1480 C   0  0  0  0  0  0  0  0  0  0  0  0
   -6.1950    5.9700   18.2490 C   0  0  0  0  0  0  0  0  0  0  0  0
   -6.9490    4.7330   17.8490 C   0  0  0  0  0  0  0  0  0  0  0  0
   -2.3410   13.2940   14.1300 O   0  0  0  0  0  0  0  0  0  0  0  0
   -1.4010   14.2860   14.5220 C   0  0  0  0  0  0  0  0  0  0  0  0
   -2.9100   15.5210   15.9620 O   0  0  0  0  0  0  0  0  0  0  0  0
   -1.8190   14.9610   15.8360 C   0  0  0  0  0  0  0  0  0  0  0  0
   -0.9100   14.8920   16.8930 N   0  0  0  0  0  0  0  0  0  0  0  0
   -1.2380   15.6120   18.1320 C   0  0  0  0  0  0  0  0  0  0  0  0
   -0.5160   16.9750   18.1700 C   0  0  0  0  0  0  0  0  0  0  0  0
    0.9550   16.7890   17.9950 N   0  0  0  0  0  0  0  0  0  0  0  0
    1.2960   16.0180   16.7790 C   0  0  0  0  0  0  0  0  0  0  0  0
    0.5340   14.6730   16.7250 C   0  0  0  0  0  0  0  0  0  0  0  0
    1.7080   16.6440   19.1650 C   0  0  0  0  0  0  0  0  0  0  0  0
    1.0590   16.4780   20.4020 C   0  0  0  0  0  0  0  0  0  0  0  0
    1.7670   16.3370   21.6010 C   0  0  0  0  0  0  0  0  0  0  0  0
    3.1550   16.3730   21.5960 C   0  0  0  0  0  0  0  0  0  0  0  0
    3.8260   16.5600   20.3940 C   0  0  0  0  0  0  0  0  0  0  0  0
    3.1090   16.7020   19.1990 C   0  0  0  0  0  0  0  0  0  0  0  0
  1  2  1  0
  2  3  2  0
  4  3  1  0
  4  7  1  0
  5  4  2  0
  6  1  2  0
  6  5  1  0
  7  8  2  0
  7 11  1  0
  8  9  1  0
  9 17  1  0
  9 10  2  0
 10 12  1  0
 11 10  1  0
 12 14  1  0
 12 13  2  0
 14 18  1  0
 15 16  2  0
 15 14  1  0
 17 15  1  0
 19 20  1  0
 19 21  1  0
 19 18  1  0
 20 21  1  0
 22 17  1  0
 22 23  1  0
 23 24  1  0
 25 23  1  0
 25 24  1  0
 26 27  1  0
 26  1  1  0
 27 29  1  0
 29 28  2  0
 29 30  1  0
 30 31  1  0
 31 32  1  0
 33 32  1  0
 33 36  1  0
 34 33  1  0
 35 34  1  0
 35 30  1  0
 36 41  1  0
 36 37  2  0
 37 38  1  0
 39 38  2  0
 40 39  1  0
 41 40  2  0
M  END
$$$$
