lig_206
     RDKit          3D

 33 37  0  0  0  0  0  0  0  0999 V2000
   -0.0020  -20.1450   11.5530 C   0  0  0  0  0  0  0  0  0  0  0  0
    0.1100  -21.6490   11.8110 C   0  0  0  0  0  0  0  0  0  0  0  0
    0.9170  -22.0870   13.0450 C   0  0  0  0  0  0  0  0  0  0  0  0
   -2.0500  -22.5660   15.8970 N   0  0  0  0  0  0  0  0  0  0  0  0
   -2.2480  -22.2920   14.4570 C   0  0  0  0  0  0  0  0  0  0  0  0
   -1.2690  -23.1070   13.5720 C   0  0  0  0  0  0  0  0  0  0  0  0
    0.1710  -23.0070   13.9100 N   0  0  0  0  0  0  0  0  0  0  0  0
    0.3460  -22.6530   15.3380 C   0  0  0  0  0  0  0  0  0  0  0  0
   -0.7720  -23.1990   16.2530 C   0  0  0  0  0  0  0  0  0  0  0  0
   -3.9400  -23.9060   16.7400 C   0  0  0  0  0  0  0  0  0  0  0  0
   -5.0380  -24.0660   17.5960 C   0  0  0  0  0  0  0  0  0  0  0  0
   -5.4500  -23.0120   18.4010 C   0  0  0  0  0  0  0  0  0  0  0  0
   -4.7600  -21.8070   18.3510 C   0  0  0  0  0  0  0  0  0  0  0  0
   -3.6470  -21.6630   17.5110 C   0  0  0  0  0  0  0  0  0  0  0  0
   -3.1810  -22.7120   16.7000 C   0  0  0  0  0  0  0  0  0  0  0  0
   -3.1700  -26.0640   16.7580 C   0  0  0  0  0  0  0  0  0  0  0  0
   -3.6370  -24.9880   15.9420 O   0  0  0  0  0  0  0  0  0  0  0  0
    0.1720  -19.3060   12.8210 C   0  0  0  0  0  0  0  0  0  0  0  0
    0.3580  -17.8660   12.5120 C   0  0  0  0  0  0  0  0  0  0  0  0
   -0.2620  -17.0770   11.5710 C   0  0  0  0  0  0  0  0  0  0  0  0
    0.2940  -15.8270   11.7330 N   0  0  0  0  0  0  0  0  0  0  0  0
    1.2130  -15.8760   12.7290 N   0  0  0  0  0  0  0  0  0  0  0  0
    1.2570  -17.1110   13.2080 N   0  0  0  0  0  0  0  0  0  0  0  0
    0.0200  -14.6280   11.0250 C   0  0  0  0  0  0  0  0  0  0  0  0
    0.4380  -14.5030    9.6940 C   0  0  0  0  0  0  0  0  0  0  0  0
    0.1780  -13.3300    8.9820 C   0  0  0  0  0  0  0  0  0  0  0  0
   -0.5060  -12.2640    9.5900 C   0  0  0  0  0  0  0  0  0  0  0  0
   -0.7920  -11.0710    8.9240 C   0  0  0  0  0  0  0  0  0  0  0  0
   -1.4460  -10.0230    9.4750 N   0  0  0  0  0  0  0  0  0  0  0  0
   -1.8380  -10.1650   10.7570 C   0  0  0  0  0  0  0  0  0  0  0  0
   -1.6090  -11.3030   11.5130 C   0  0  0  0  0  0  0  0  0  0  0  0
   -0.9290  -12.3790   10.9280 C   0  0  0  0  0  0  0  0  0  0  0  0
   -0.6630  -13.5650   11.6380 C   0  0  0  0  0  0  0  0  0  0  0  0
  1  2  1  0
  1 18  1  0
  2  3  1  0
  3  7  1  0
  4  9  1  0
  4 15  1  0
  5  4  1  0
  6  7  1  0
  6  5  1  0
  7  8  1  0
  8  9  1  0
 10 11  2  0
 11 12  1  0
 13 12  2  0
 14 13  1  0
 15 10  1  0
 15 14  2  0
 17 10  1  0
 17 16  1  0
 19 18  1  0
 19 23  1  0
 20 21  1  0
 20 19  2  0
 21 22  1  0
 22 23  2  0
 24 33  1  0
 24 21  1  0
 25 24  2  0
 26 27  2  0
 26 25  1  0
 27 32  1  0
 28 29  2  0
 28 27  1  0
 29 30  1  0
 30 31  2  0
 32 31  1  0
 32 33  2  0
M  END
$$$$
