lig_001
     RDKit          3D

 25 28  0  0  0  0  0  0  0  0999 V2000
   -1.4780    8.1850   16.2390 N   0  0  0  0  0  0  0  0  0  0  0  0
   -2.0500    9.4430   16.1200 C   0  0  0  0  0  0  0  0  0  0  0  0
   -3.3580    9.5500   15.8160 N   0  0  0  0  0  0  0  0  0  0  0  0
   -3.9160   10.7690   15.6680 C   0  0  0  0  0  0  0  0  0  0  0  0
   -3.1230   11.9080   15.8690 C   0  0  0  0  0  0  0  0  0  0  0  0
   -3.4770   13.2520   15.8040 N   0  0  0  0  0  0  0  0  0  0  0  0
   -2.4130   13.9890   16.0590 C   0  0  0  0  0  0  0  0  0  0  0  0
   -0.9630   13.1280   16.4020 S   0  0  0  0  0  0  0  0  0  0  0  0
   -1.8010   11.6620   16.1880 C   0  0  0  0  0  0  0  0  0  0  0  0
   -1.2150   10.4650   16.3280 N   0  0  0  0  0  0  0  0  0  0  0  0
   -2.4570   15.4270   16.0560 C   0  0  0  0  0  0  0  0  0  0  0  0
   -3.0990   16.2590   15.1500 C   0  0  0  0  0  0  0  0  0  0  0  0
   -2.8600   17.5940   15.5560 C   0  0  0  0  0  0  0  0  0  0  0  0
   -2.0870   17.5100   16.6870 C   0  0  0  0  0  0  0  0  0  0  0  0
   -1.8390   16.2140   16.9980 O   0  0  0  0  0  0  0  0  0  0  0  0
   -5.2650   10.8350   15.3430 N   0  0  0  0  0  0  0  0  0  0  0  0
   -2.3640    7.1660   16.7610 C   0  0  0  0  0  0  0  0  0  0  0  0
   -1.3250    3.8930   18.4430 C   0  0  0  0  0  0  0  0  0  0  0  0
   -0.0320    4.2020   18.8630 C   0  0  0  0  0  0  0  0  0  0  0  0
    0.5060    5.4660   18.6050 C   0  0  0  0  0  0  0  0  0  0  0  0
   -0.2460    6.4230   17.9240 C   0  0  0  0  0  0  0  0  0  0  0  0
   -1.5440    6.1260   17.4870 C   0  0  0  0  0  0  0  0  0  0  0  0
   -2.0740    4.8560   17.7600 C   0  0  0  0  0  0  0  0  0  0  0  0
   -2.6250    2.1370   17.5050 C   0  0  0  0  0  0  0  0  0  0  0  0
   -1.9700    2.7010   18.6340 O   0  0  0  0  0  0  0  0  0  0  0  0
  1 17  1  0
  2  1  1  0
  2 10  1  0
  3  2  2  0
  4  3  1  0
  4  5  2  0
  5  9  1  0
  6  5  1  0
  6  7  2  0
  7  8  1  0
  9 10  2  0
  9  8  1  0
 11  7  1  0
 11 15  1  0
 12 13  1  0
 12 11  2  0
 13 14  2  0
 14 15  1  0
 16  4  1  0
 17 22  1  0
 18 25  1  0
 18 19  2  0
 20 19  1  0
 21 20  2  0
 22 23  2  0
 22 21  1  0
 23 18  1  0
 24 25  1  0
M  END
$$$$
