lig_258
     RDKit          3D

 29 32  0  0  0  0  0  0  0  0999 V2000
    1.9100  -17.9670   14.5740 C   0  0  0  0  0  0  0  0  0  0  0  0
   -0.4500  -21.3900   15.4330 N   0  0  0  0  0  0  0  0  0  0  0  0
    0.8310  -21.3570   14.6950 C   0  0  0  0  0  0  0  0  0  0  0  0
    0.9630  -20.1150   13.7830 C   0  0  0  0  0  0  0  0  0  0  0  0
    0.7240  -18.8170   14.4400 N   0  0  0  0  0  0  0  0  0  0  0  0
   -0.0560  -18.9470   15.6850 C   0  0  0  0  0  0  0  0  0  0  0  0
   -1.1100  -20.0740   15.6060 C   0  0  0  0  0  0  0  0  0  0  0  0
   -2.7220  -25.9270   16.6460 Cl  0  0  0  0  0  0  0  0  0  0  0  0
   -2.4710  -24.5310   15.6540 C   0  0  0  0  0  0  0  0  0  0  0  0
   -3.2490  -24.4250   14.4980 C   0  0  0  0  0  0  0  0  0  0  0  0
   -3.1010  -23.3260   13.6580 C   0  0  0  0  0  0  0  0  0  0  0  0
   -2.1700  -22.3320   13.9670 C   0  0  0  0  0  0  0  0  0  0  0  0
   -1.3660  -22.4130   15.1200 C   0  0  0  0  0  0  0  0  0  0  0  0
   -1.5330  -23.5330   15.9700 C   0  0  0  0  0  0  0  0  0  0  0  0
   -0.5450  -23.6840   17.3970 Cl  0  0  0  0  0  0  0  0  0  0  0  0
    2.5130  -17.4290   13.2670 C   0  0  0  0  0  0  0  0  0  0  0  0
    2.1790  -15.9560   13.0170 C   0  0  0  0  0  0  0  0  0  0  0  0
    0.6810  -15.6720   12.9210 C   0  0  0  0  0  0  0  0  0  0  0  0
    0.2890  -15.8790   11.5610 O   0  0  0  0  0  0  0  0  0  0  0  0
    0.0210  -14.7030   10.8870 C   0  0  0  0  0  0  0  0  0  0  0  0
   -0.6120  -13.7110   11.6210 C   0  0  0  0  0  0  0  0  0  0  0  0
   -0.9080  -12.4950   10.9960 C   0  0  0  0  0  0  0  0  0  0  0  0
   -1.5480  -11.4450   11.6750 C   0  0  0  0  0  0  0  0  0  0  0  0
   -1.8310  -10.2430   11.0230 C   0  0  0  0  0  0  0  0  0  0  0  0
   -1.4800  -10.0740    9.6860 C   0  0  0  0  0  0  0  0  0  0  0  0
   -0.8450  -11.1070    8.9950 C   0  0  0  0  0  0  0  0  0  0  0  0
   -0.5550  -12.3220    9.6430 C   0  0  0  0  0  0  0  0  0  0  0  0
    0.0810  -13.3910    9.0050 C   0  0  0  0  0  0  0  0  0  0  0  0
    0.3760  -14.5730    9.5930 N   0  0  0  0  0  0  0  0  0  0  0  0
  2  7  1  0
  3  2  1  0
  4  5  1  0
  4  3  1  0
  5  1  1  0
  5  6  1  0
  7  6  1  0
  9 14  2  0
  9  8  1  0
 10  9  1  0
 11 12  1  0
 11 10  2  0
 12 13  2  0
 13  2  1  0
 13 14  1  0
 14 15  1  0
 16  1  1  0
 17 16  1  0
 18 17  1  0
 19 18  1  0
 20 19  1  0
 20 21  2  0
 22 21  1  0
 22 23  2  0
 24 23  1  0
 25 24  2  0
 26 27  2  0
 26 25  1  0
 27 22  1  0
 28 29  2  0
 28 27  1  0
 29 20  1  0
M  END
$$$$
