lig_426
     RDKit          3D

 25 28  0  0  0  0  0  0  0  0999 V2000
   -0.7230  -24.0360   15.2940 C   0  0  0  0  0  0  0  0  0  0  0  0
    0.1440  -23.8880   14.2080 C   0  0  0  0  0  0  0  0  0  0  0  0
    0.5330  -22.6190   13.7610 C   0  0  0  0  0  0  0  0  0  0  0  0
    0.0600  -21.4670   14.3970 C   0  0  0  0  0  0  0  0  0  0  0  0
    0.4160  -20.1030   13.9910 C   0  0  0  0  0  0  0  0  0  0  0  0
   -0.1230  -19.0550   14.6440 C   0  0  0  0  0  0  0  0  0  0  0  0
   -1.0370  -19.2300   15.7950 C   0  0  0  0  0  0  0  0  0  0  0  0
   -1.5060  -18.2730   16.4010 O   0  0  0  0  0  0  0  0  0  0  0  0
   -1.3390  -20.5310   16.1640 O   0  0  0  0  0  0  0  0  0  0  0  0
   -0.8080  -21.6380   15.4740 C   0  0  0  0  0  0  0  0  0  0  0  0
   -1.2040  -22.8980   15.9320 C   0  0  0  0  0  0  0  0  0  0  0  0
    0.1560  -17.6230   14.2610 C   0  0  0  0  0  0  0  0  0  0  0  0
    0.7490  -17.4350   12.9200 N   0  0  0  0  0  0  0  0  0  0  0  0
    1.8280  -18.4110   12.7170 C   0  0  0  0  0  0  0  0  0  0  0  0
    1.3830  -19.8780   12.8520 C   0  0  0  0  0  0  0  0  0  0  0  0
   -2.0810  -25.5350   16.5420 C   0  0  0  0  0  0  0  0  0  0  0  0
   -1.0160  -25.3310   15.6200 O   0  0  0  0  0  0  0  0  0  0  0  0
   -0.2860  -17.4510   11.8720 C   0  0  0  0  0  0  0  0  0  0  0  0
   -0.0040  -16.5010   10.7260 C   0  0  0  0  0  0  0  0  0  0  0  0
    0.4940  -15.2140   11.0100 C   0  0  0  0  0  0  0  0  0  0  0  0
    0.7600  -14.3040    9.9850 C   0  0  0  0  0  0  0  0  0  0  0  0
    0.5360  -14.6620    8.6600 C   0  0  0  0  0  0  0  0  0  0  0  0
    0.0470  -15.9330    8.3580 C   0  0  0  0  0  0  0  0  0  0  0  0
   -0.2200  -16.8490    9.3810 C   0  0  0  0  0  0  0  0  0  0  0  0
   -0.8030  -18.4080    8.9180 Cl  0  0  0  0  0  0  0  0  0  0  0  0
  1 17  1  0
  1 11  2  0
  2  1  1  0
  3  2  2  0
  3  4  1  0
  4 10  2  0
  5  4  1  0
  5  6  2  0
  6  7  1  0
  7  9  1  0
  7  8  2  0
 10 11  1  0
 10  9  1  0
 12  6  1  0
 13 12  1  0
 14 15  1  0
 14 13  1  0
 15  5  1  0
 17 16  1  0
 18 13  1  0
 19 20  2  0
 19 18  1  0
 21 20  1  0
 22 21  2  0
 23 22  1  0
 23 24  2  0
 24 19  1  0
 25 24  1  0
M  END
$$$$
