lig_011
     RDKit          3D

 33 37  0  0  1  0  0  0  0  0999 V2000
   10.2100    0.3670   61.8860 C   0  0  1  0  0  0  0  0  0  0  0  0
   10.3970   -0.1620   60.4560 C   0  0  0  0  0  0  0  0  0  0  0  0
    9.4720    0.5400   59.4670 C   0  0  0  0  0  0  0  0  0  0  0  0
    9.7440    2.0600   59.3920 C   0  0  1  0  0  0  0  0  0  0  0  0
   10.3070    2.6120   60.7160 C   0  0  0  0  0  0  0  0  0  0  0  0
    9.7790    1.8430   61.9210 C   0  0  0  0  0  0  0  0  0  0  0  0
   10.2930   -0.3750   64.6570 O   0  0  0  0  0  0  0  0  0  0  0  0
    9.3530   -0.6980   63.9480 C   0  0  0  0  0  0  0  0  0  0  0  0
    9.2520   -0.4510   62.6120 N   0  0  0  0  0  0  0  0  0  0  0  0
    8.2380   -1.3440   64.3570 O   0  0  0  0  0  0  0  0  0  0  0  0
    7.9460   -2.5720   63.6780 C   0  0  0  0  0  0  0  0  0  0  0  0
    6.4790   -2.8260   63.8220 C   0  0  0  0  0  0  0  0  0  0  0  0
    5.5610   -2.1130   64.5680 C   0  0  0  0  0  0  0  0  0  0  0  0
    4.2450   -2.6490   64.4650 C   0  0  0  0  0  0  0  0  0  0  0  0
    4.2010   -3.7510   63.6430 C   0  0  0  0  0  0  0  0  0  0  0  0
    5.7400   -4.1380   63.0040 S   0  0  0  0  0  0  0  0  0  0  0  0
   10.6640    2.3920   58.1950 C   0  0  0  0  0  0  0  0  0  0  0  0
   12.1440    2.5280   58.5950 C   0  0  0  0  0  0  0  0  0  0  0  0
   12.9470    1.3000   58.6140 N   0  0  0  0  0  0  0  0  0  0  0  0
   13.0240    0.6300   57.2990 C   0  0  0  0  0  0  0  0  0  0  0  0
   13.8040   -0.7050   57.3680 C   0  0  0  0  0  0  0  0  0  0  0  0
   15.1530   -0.5380   57.9590 N   0  0  0  0  0  0  0  0  0  0  0  0
   16.1770   -0.1750   57.1150 C   0  0  0  0  0  0  0  0  0  0  0  0
   15.9890    0.4440   55.9510 N   0  0  0  0  0  0  0  0  0  0  0  0
   17.4430    0.7480   55.2390 S   0  0  0  0  0  0  0  0  0  0  0  0
   18.4110    0.0040   56.4410 C   0  0  0  0  0  0  0  0  0  0  0  0
   19.8090   -0.1400   56.4960 C   0  0  0  0  0  0  0  0  0  0  0  0
   20.3640   -0.8170   57.5850 C   0  0  0  0  0  0  0  0  0  0  0  0
   19.5520   -1.3410   58.5830 C   0  0  0  0  0  0  0  0  0  0  0  0
   18.1630   -1.1870   58.5170 C   0  0  0  0  0  0  0  0  0  0  0  0
   17.5640   -0.4880   57.4360 C   0  0  0  0  0  0  0  0  0  0  0  0
   15.0790    0.1560   59.2670 C   0  0  0  0  0  0  0  0  0  0  0  0
   14.3060    1.4930   59.1560 C   0  0  0  0  0  0  0  0  0  0  0  0
  1  6  1  0
  1  9  1  6
  2  1  1  0
  3  2  1  0
  4 17  1  6
  4  3  1  0
  4  5  1  0
  5  6  1  0
  8 10  1  0
  8  7  2  0
  9  8  1  0
 11 12  1  0
 11 10  1  0
 12 13  2  0
 14 13  1  0
 15 14  2  0
 16 15  1  0
 16 12  1  0
 17 18  1  0
 18 19  1  0
 19 33  1  0
 20 21  1  0
 20 19  1  0
 21 22  1  0
 22 32  1  0
 23 31  1  0
 23 22  1  0
 24 23  2  0
 25 24  1  0
 25 26  1  0
 26 27  2  0
 26 31  1  0
 27 28  1  0
 28 29  2  0
 30 29  1  0
 31 30  2  0
 33 32  1  0
M  END
$$$$
