lig_009
     RDKit          3D

 31 35  0  0  1  0  0  0  0  0999 V2000
   10.0440    4.9990  -12.7410 N   0  0  0  0  0  0  0  0  0  0  0  0
    9.4510    5.1340  -11.4020 C   0  0  0  0  0  0  0  0  0  0  0  0
    9.1890    6.6220  -11.0540 C   0  0  0  0  0  0  0  0  0  0  0  0
   10.3570    7.5300  -11.1510 N   0  0  0  0  0  0  0  0  0  0  0  0
   11.3960    6.9550  -12.0340 C   0  0  0  0  0  0  0  0  0  0  0  0
   10.8320    6.1440  -13.2230 C   0  0  0  0  0  0  0  0  0  0  0  0
    5.2280    3.5430  -12.4450 C   0  0  0  0  0  0  0  0  0  0  0  0
    6.2940    3.2610  -13.4960 C   0  0  1  0  0  0  0  0  0  0  0  0
    7.5550    3.6040  -12.9300 O   0  0  0  0  0  0  0  0  0  0  0  0
    8.6380    3.1790  -13.6710 C   0  0  0  0  0  0  0  0  0  0  0  0
    8.5360    2.0220  -14.4690 C   0  0  0  0  0  0  0  0  0  0  0  0
    9.6490    1.5110  -15.1290 C   0  0  0  0  0  0  0  0  0  0  0  0
   10.8690    2.1580  -15.0010 C   0  0  0  0  0  0  0  0  0  0  0  0
   10.9720    3.3070  -14.2070 C   0  0  0  0  0  0  0  0  0  0  0  0
    9.8730    3.8550  -13.5140 C   0  0  0  0  0  0  0  0  0  0  0  0
    7.3220    1.3370  -14.5750 N   0  0  0  0  0  0  0  0  0  0  0  0
    6.1700    1.8260  -14.0200 C   0  0  0  0  0  0  0  0  0  0  0  0
    5.1280    1.1770  -14.0420 O   0  0  0  0  0  0  0  0  0  0  0  0
   10.9300    7.8800   -9.8440 C   0  0  0  0  0  0  0  0  0  0  0  0
   10.0220    7.4550   -8.6830 C   0  0  0  0  0  0  0  0  0  0  0  0
   10.8550    7.0370   -7.4680 C   0  0  0  0  0  0  0  0  0  0  0  0
   11.0170    8.1520   -6.4830 C   0  0  0  0  0  0  0  0  0  0  0  0
   10.7870    9.4930   -6.7210 C   0  0  0  0  0  0  0  0  0  0  0  0
   11.0450   10.1870   -5.5710 N   0  0  0  0  0  0  0  0  0  0  0  0
   11.4420    9.3250   -4.5740 C   0  0  0  0  0  0  0  0  0  0  0  0
   11.8030    9.5890   -3.2450 C   0  0  0  0  0  0  0  0  0  0  0  0
   12.1660    8.5010   -2.4490 C   0  0  0  0  0  0  0  0  0  0  0  0
   12.1640    7.2140   -2.9700 C   0  0  0  0  0  0  0  0  0  0  0  0
   12.5160    6.1890   -2.1810 F   0  0  0  0  0  0  0  0  0  0  0  0
   11.8040    6.9590   -4.2930 C   0  0  0  0  0  0  0  0  0  0  0  0
   11.4350    8.0400   -5.1180 C   0  0  0  0  0  0  0  0  0  0  0  0
  1  2  1  0
  2  3  1  0
  4  3  1  0
  4 19  1  0
  5  4  1  0
  6  1  1  0
  6  5  1  0
  8  9  1  0
  8  7  1  1
 10 15  1  0
 10  9  1  0
 11 10  2  0
 12 13  2  0
 12 11  1  0
 13 14  1  0
 14 15  2  0
 15  1  1  0
 16 11  1  0
 16 17  1  0
 17  8  1  0
 18 17  2  0
 19 20  1  0
 20 21  1  0
 21 22  1  0
 22 31  1  0
 23 22  2  0
 23 24  1  0
 24 25  1  0
 25 26  1  0
 26 27  2  0
 28 27  1  0
 28 29  1  0
 30 28  2  0
 31 25  2  0
 31 30  1  0
M  END
$$$$
