lig_401
     RDKit          3D

 32 37  0  0  0  0  0  0  0  0999 V2000
    5.9700   19.5550   11.2430 C   0  0  0  0  0  0  0  0  0  0  0  0
    5.1240   18.7700   12.1100 N   0  0  0  0  0  0  0  0  0  0  0  0
    4.8270   19.0330   13.4250 C   0  0  0  0  0  0  0  0  0  0  0  0
    3.9960   18.0170   13.7900 C   0  0  0  0  0  0  0  0  0  0  0  0
    3.8520   17.1950   12.6660 C   0  0  0  0  0  0  0  0  0  0  0  0
    3.0760   16.0190   12.6290 N   0  0  0  0  0  0  0  0  0  0  0  0
    2.4400   15.7440   13.7360 C   0  0  0  0  0  0  0  0  0  0  0  0
    1.6370   14.6270   13.7900 N   0  0  0  0  0  0  0  0  0  0  0  0
    0.3340   14.6900   14.2580 C   0  0  0  0  0  0  0  0  0  0  0  0
   -0.2600   15.7520   14.4050 O   0  0  0  0  0  0  0  0  0  0  0  0
   -0.1880   13.4330   14.4190 N   0  0  0  0  0  0  0  0  0  0  0  0
   -1.4780   13.0730   14.8130 C   0  0  0  0  0  0  0  0  0  0  0  0
   -2.5100   13.9720   15.0140 C   0  0  0  0  0  0  0  0  0  0  0  0
   -3.7540   13.4820   15.4020 C   0  0  0  0  0  0  0  0  0  0  0  0
   -3.9370   12.1060   15.5760 C   0  0  0  0  0  0  0  0  0  0  0  0
   -5.1740   11.5660   15.9680 C   0  0  0  0  0  0  0  0  0  0  0  0
   -5.3200   10.1900   16.1310 C   0  0  0  0  0  0  0  0  0  0  0  0
   -4.2330    9.3540   15.9050 C   0  0  0  0  0  0  0  0  0  0  0  0
   -3.0050    9.8970   15.5160 C   0  0  0  0  0  0  0  0  0  0  0  0
   -2.8310   11.2650   15.3460 C   0  0  0  0  0  0  0  0  0  0  0  0
   -1.6290   11.7390   14.9700 N   0  0  0  0  0  0  0  0  0  0  0  0
    2.5320   16.4690   14.9490 N   0  0  0  0  0  0  0  0  0  0  0  0
    2.0780   16.1020   16.1660 N   0  0  0  0  0  0  0  0  0  0  0  0
    2.4850   17.1370   16.9220 C   0  0  0  0  0  0  0  0  0  0  0  0
    3.2470   18.0880   16.2670 N   0  0  0  0  0  0  0  0  0  0  0  0
    3.2810   17.6070   15.0530 C   0  0  0  0  0  0  0  0  0  0  0  0
    4.5410   17.6440   11.6250 N   0  0  0  0  0  0  0  0  0  0  0  0
    2.1550   17.2480   18.4470 C   0  0  0  0  0  0  0  0  0  0  0  0
    1.3190   16.4010   19.1470 C   0  0  0  0  0  0  0  0  0  0  0  0
    1.3020   16.8570   20.4880 C   0  0  0  0  0  0  0  0  0  0  0  0
    2.1280   17.9560   20.5240 C   0  0  0  0  0  0  0  0  0  0  0  0
    2.6480   18.2020   19.2950 O   0  0  0  0  0  0  0  0  0  0  0  0
  1  2  1  0
  2  3  1  0
  3  4  2  0
  4 26  1  0
  5  4  1  0
  6  5  1  0
  6  7  2  0
  7  8  1  0
  7 22  1  0
  8  9  1  0
  9 10  2  0
  9 11  1  0
 11 12  1  0
 12 21  2  0
 12 13  1  0
 13 14  2  0
 14 15  1  0
 15 16  2  0
 16 17  1  0
 18 17  2  0
 19 18  1  0
 20 19  2  0
 20 15  1  0
 21 20  1  0
 22 26  1  0
 22 23  1  0
 23 24  2  0
 24 28  1  0
 25 24  1  0
 26 25  2  0
 27  2  1  0
 27  5  2  0
 28 29  2  0
 28 32  1  0
 29 30  1  0
 30 31  2  0
 32 31  1  0
M  END
$$$$
