lig_083
     RDKit          3D

 27 30  0  0  0  0  0  0  0  0999 V2000
   -4.9950    5.1650   16.9350 C   0  0  0  0  0  0  0  0  0  0  0  0
   -4.8440    3.8470   17.3630 C   0  0  0  0  0  0  0  0  0  0  0  0
   -3.6010    3.3700   17.7530 C   0  0  0  0  0  0  0  0  0  0  0  0
   -2.4290    4.1620   17.7380 C   0  0  0  0  0  0  0  0  0  0  0  0
   -2.6050    5.5030   17.2880 C   0  0  0  0  0  0  0  0  0  0  0  0
   -1.4360    6.7650   17.0680 S   0  0  0  0  0  0  0  0  0  0  0  0
   -2.6350    7.8400   16.5660 C   0  0  0  0  0  0  0  0  0  0  0  0
   -2.3650    9.1290   16.1840 N   0  0  0  0  0  0  0  0  0  0  0  0
   -1.2550    9.8610   16.5230 C   0  0  0  0  0  0  0  0  0  0  0  0
   -0.4070    9.5180   17.3420 O   0  0  0  0  0  0  0  0  0  0  0  0
   -1.1860   11.1060   15.8710 N   0  0  0  0  0  0  0  0  0  0  0  0
   -1.6820   11.2890   14.5040 C   0  0  0  0  0  0  0  0  0  0  0  0
   -1.9930   12.7530   14.2030 C   0  0  0  0  0  0  0  0  0  0  0  0
   -0.8070   13.6570   14.5230 C   0  0  0  0  0  0  0  0  0  0  0  0
   -0.3120   13.4230   15.9460 C   0  0  0  0  0  0  0  0  0  0  0  0
   -0.0390   11.9480   16.2150 C   0  0  0  0  0  0  0  0  0  0  0  0
   -3.8410    7.3490   16.4740 N   0  0  0  0  0  0  0  0  0  0  0  0
   -3.8570    6.0160   16.8910 C   0  0  0  0  0  0  0  0  0  0  0  0
   -1.2480    3.5330   18.1870 N   0  0  0  0  0  0  0  0  0  0  0  0
   -1.3230    2.2330   18.8790 C   0  0  0  0  0  0  0  0  0  0  0  0
    0.0910    1.6300   18.9660 C   0  0  0  0  0  0  0  0  0  0  0  0
    0.9890    2.5120   19.6640 O   0  0  0  0  0  0  0  0  0  0  0  0
    1.0720    3.7760   18.9860 C   0  0  0  0  0  0  0  0  0  0  0  0
   -0.3040    4.4540   18.8610 C   0  0  0  0  0  0  0  0  0  0  0  0
   -7.3140    5.1250   17.5190 C   0  0  0  0  0  0  0  0  0  0  0  0
   -6.3050    5.4770   16.5830 O   0  0  0  0  0  0  0  0  0  0  0  0
    0.2560   13.4050   13.6090 O   0  0  0  0  0  0  0  0  0  0  0  0
  1  2  1  0
  2  3  2  0
  4  3  1  0
  4 19  1  0
  5  4  2  0
  6  5  1  0
  7  6  1  0
  8  9  1  0
  8  7  1  0
  9 10  2  0
 11 16  1  0
 11  9  1  0
 12 11  1  0
 13 12  1  0
 13 14  1  0
 14 15  1  0
 15 16  1  0
 17  7  2  0
 17 18  1  0
 18  1  2  0
 18  5  1  0
 19 24  1  0
 19 20  1  0
 20 21  1  0
 21 22  1  0
 23 22  1  0
 24 23  1  0
 26  1  1  0
 26 25  1  0
 27 14  1  0
M  END
$$$$
