lig_385
     RDKit          3D

 35 38  0  0  1  0  0  0  0  0999 V2000
    0.4030  -16.1170   12.1880 C   0  0  0  0  0  0  0  0  0  0  0  0
    1.5870  -15.9780   13.1630 C   0  0  0  0  0  0  0  0  0  0  0  0
    2.5490  -17.1690   13.0870 C   0  0  0  0  0  0  0  0  0  0  0  0
    1.8970  -18.4730   13.2860 N   0  0  0  0  0  0  0  0  0  0  0  0
    0.7810  -18.6300   12.3410 C   0  0  0  0  0  0  0  0  0  0  0  0
   -0.2440  -17.4950   12.4010 C   0  0  0  0  0  0  0  0  0  0  0  0
    0.8880  -15.8840   10.8160 N   0  0  0  0  0  0  0  0  0  0  0  0
    0.3490  -14.7040   10.1270 C   0  0  0  0  0  0  0  0  0  0  0  0
    1.3130  -13.8490    9.2660 C   0  0  1  0  0  0  0  0  0  0  0  0
    2.1010  -14.6910    8.4150 O   0  0  0  0  0  0  0  0  0  0  0  0
    0.5740  -12.7950    8.4250 C   0  0  0  0  0  0  0  0  0  0  0  0
   -0.2040  -11.8150    9.2770 C   0  0  0  0  0  0  0  0  0  0  0  0
   -1.5990  -11.7320    9.1680 C   0  0  0  0  0  0  0  0  0  0  0  0
   -2.3180  -10.8240    9.9460 C   0  0  0  0  0  0  0  0  0  0  0  0
   -1.6500   -9.9890   10.8400 C   0  0  0  0  0  0  0  0  0  0  0  0
   -0.2620  -10.0620   10.9550 C   0  0  0  0  0  0  0  0  0  0  0  0
    0.4580  -10.9690   10.1760 C   0  0  0  0  0  0  0  0  0  0  0  0
    1.5480  -18.7130   14.6940 C   0  0  0  0  0  0  0  0  0  0  0  0
    0.6640  -19.9450   14.9680 C   0  0  0  0  0  0  0  0  0  0  0  0
   -0.9670  -19.6300   15.7350 S   0  0  0  0  0  0  0  0  0  0  0  0
   -1.3950  -21.3170   16.3330 C   0  0  0  0  0  0  0  0  0  0  0  0
   -1.3470  -22.4200   15.2790 C   0  0  0  0  0  0  0  0  0  0  0  0
   -2.0380  -22.2290   14.0640 C   0  0  0  0  0  0  0  0  0  0  0  0
   -2.0080  -23.1990   13.0610 C   0  0  0  0  0  0  0  0  0  0  0  0
   -1.2800  -24.3650   13.2560 C   0  0  0  0  0  0  0  0  0  0  0  0
   -1.2550  -25.2970   12.2960 F   0  0  0  0  0  0  0  0  0  0  0  0
   -0.5780  -24.5750   14.4350 C   0  0  0  0  0  0  0  0  0  0  0  0
   -0.6050  -23.6050   15.4400 C   0  0  0  0  0  0  0  0  0  0  0  0
   -2.7300  -21.2850   17.0770 C   0  0  0  0  0  0  0  0  0  0  0  0
   -3.6000  -22.3920   17.0810 C   0  0  0  0  0  0  0  0  0  0  0  0
   -4.8120  -22.3450   17.7720 C   0  0  0  0  0  0  0  0  0  0  0  0
   -5.1640  -21.1920   18.4600 C   0  0  0  0  0  0  0  0  0  0  0  0
   -6.3270  -21.1470   19.1230 F   0  0  0  0  0  0  0  0  0  0  0  0
   -4.3270  -20.0840   18.4700 C   0  0  0  0  0  0  0  0  0  0  0  0
   -3.1150  -20.1280   17.7810 C   0  0  0  0  0  0  0  0  0  0  0  0
  1  6  1  0
  1  2  1  0
  3  2  1  0
  3  4  1  0
  4 18  1  0
  5  6  1  0
  5  4  1  0
  7  1  1  0
  8  7  1  0
  9 11  1  0
  9  8  1  0
  9 10  1  6
 11 12  1  0
 12 17  1  0
 13 12  2  0
 13 14  1  0
 14 15  2  0
 15 16  1  0
 17 16  2  0
 18 19  1  0
 19 20  1  0
 20 21  1  0
 21 29  1  0
 22 28  2  0
 22 21  1  0
 23 22  1  0
 24 25  1  0
 24 23  2  0
 25 27  2  0
 26 25  1  0
 27 28  1  0
 29 30  1  0
 29 35  2  0
 30 31  2  0
 31 32  1  0
 32 34  2  0
 32 33  1  0
 35 34  1  0
M  END
$$$$
