lig_010
     RDKit          3D

 26 29  0  0  1  0  0  0  0  0999 V2000
  -12.1540  -12.2110   36.7790 O   0  0  0  0  0  0  0  0  0  0  0  0
  -11.6030  -13.2260   37.1900 C   0  0  0  0  0  0  0  0  0  0  0  0
  -10.7290  -13.3160   38.2840 N   0  0  0  0  0  0  0  0  0  0  0  0
  -10.3100  -12.1610   39.0410 C   0  0  0  0  0  0  0  0  0  0  0  0
  -11.0420  -11.6920   40.1440 C   0  0  0  0  0  0  0  0  0  0  0  0
  -10.6330  -10.5650   40.8690 C   0  0  0  0  0  0  0  0  0  0  0  0
   -9.4830   -9.8890   40.4960 C   0  0  0  0  0  0  0  0  0  0  0  0
   -9.0910   -8.8120   41.1880 F   0  0  0  0  0  0  0  0  0  0  0  0
   -8.7360  -10.3180   39.4120 C   0  0  0  0  0  0  0  0  0  0  0  0
   -9.1490  -11.4440   38.6890 C   0  0  0  0  0  0  0  0  0  0  0  0
  -11.8250  -14.4410   36.6050 O   0  0  0  0  0  0  0  0  0  0  0  0
  -13.0600  -14.5810   35.8820 C   0  0  1  0  0  0  0  0  0  0  0  0
  -12.9160  -15.5770   34.7040 C   0  0  0  0  0  0  0  0  0  0  0  0
  -13.8380  -16.7370   34.8330 N   0  0  0  0  0  0  0  0  0  0  0  0
  -13.5250  -17.4430   36.0940 C   0  0  0  0  0  0  0  0  0  0  0  0
  -13.7050  -16.5340   37.3190 C   0  0  0  0  0  0  0  0  0  0  0  0
  -14.1260  -15.1270   36.8560 C   0  0  0  0  0  0  0  0  0  0  0  0
  -15.4410  -15.2740   36.0750 C   0  0  0  0  0  0  0  0  0  0  0  0
  -15.2280  -16.2370   34.8950 C   0  0  0  0  0  0  0  0  0  0  0  0
  -10.2450  -14.6440   38.6880 C   0  0  0  0  0  0  0  0  0  0  0  0
  -11.0650  -15.3550   39.7480 C   0  0  0  0  0  0  0  0  0  0  0  0
  -10.4050  -16.2300   40.6260 C   0  0  0  0  0  0  0  0  0  0  0  0
  -11.1050  -16.9050   41.6270 C   0  0  0  0  0  0  0  0  0  0  0  0
  -12.4760  -16.7120   41.7690 C   0  0  0  0  0  0  0  0  0  0  0  0
  -13.1460  -15.8450   40.9110 C   0  0  0  0  0  0  0  0  0  0  0  0
  -12.4470  -15.1690   39.9080 C   0  0  0  0  0  0  0  0  0  0  0  0
  1  2  2  0
  2  3  1  0
  3 20  1  0
  3  4  1  0
  4  5  1  0
  5  6  2  0
  7  6  1  0
  7  8  1  0
  9  7  2  0
 10  4  2  0
 10  9  1  0
 11  2  1  0
 12 11  1  1
 12 17  1  0
 13 12  1  0
 14 13  1  0
 14 19  1  0
 14 15  1  0
 15 16  1  0
 17 18  1  0
 17 16  1  0
 19 18  1  0
 20 21  1  0
 21 26  1  0
 21 22  2  0
 22 23  1  0
 23 24  2  0
 25 24  1  0
 26 25  2  0
M  END
$$$$
