lig_430
     RDKit          3D

 28 31  0  0  0  0  0  0  0  0999 V2000
   -0.0060  -14.3290   11.1060 O   0  0  0  0  0  0  0  0  0  0  0  0
    0.0530  -12.8070    9.2990 C   0  0  0  0  0  0  0  0  0  0  0  0
    0.2440  -12.5450    7.9300 C   0  0  0  0  0  0  0  0  0  0  0  0
    0.5580  -13.5740    7.0420 C   0  0  0  0  0  0  0  0  0  0  0  0
    0.6900  -14.8760    7.5120 C   0  0  0  0  0  0  0  0  0  0  0  0
    0.5000  -15.1530    8.8670 C   0  0  0  0  0  0  0  0  0  0  0  0
    0.1640  -14.1310    9.7620 C   0  0  0  0  0  0  0  0  0  0  0  0
   -0.2990  -11.6650   10.2270 C   0  0  0  0  0  0  0  0  0  0  0  0
   -4.3220  -10.1680    9.7410 C   0  0  0  0  0  0  0  0  0  0  0  0
   -3.2590   -9.2790    9.8820 C   0  0  0  0  0  0  0  0  0  0  0  0
   -1.9590   -9.7630   10.0360 C   0  0  0  0  0  0  0  0  0  0  0  0
   -1.7080  -11.1420   10.0480 C   0  0  0  0  0  0  0  0  0  0  0  0
   -2.7880  -12.0270    9.9090 C   0  0  0  0  0  0  0  0  0  0  0  0
   -4.0870  -11.5410    9.7560 C   0  0  0  0  0  0  0  0  0  0  0  0
    0.3490  -15.6180   11.6230 C   0  0  0  0  0  0  0  0  0  0  0  0
    1.7120  -15.5360   12.3290 C   0  0  0  0  0  0  0  0  0  0  0  0
    1.8490  -16.4440   13.4830 N   0  0  0  0  0  0  0  0  0  0  0  0
    2.7060  -17.6060   13.1540 C   0  0  0  0  0  0  0  0  0  0  0  0
    1.9630  -18.8850   12.7000 C   0  0  0  0  0  0  0  0  0  0  0  0
    0.9650  -19.3090   13.6960 N   0  0  0  0  0  0  0  0  0  0  0  0
    0.5280  -18.2850   14.6570 C   0  0  0  0  0  0  0  0  0  0  0  0
    0.5280  -16.8890   13.9890 C   0  0  0  0  0  0  0  0  0  0  0  0
    0.6380  -20.6470   13.8500 C   0  0  0  0  0  0  0  0  0  0  0  0
   -0.6860  -21.1080   13.7730 C   0  0  0  0  0  0  0  0  0  0  0  0
   -1.0130  -22.4620   13.9240 C   0  0  0  0  0  0  0  0  0  0  0  0
   -0.0140  -23.3990   14.1530 C   0  0  0  0  0  0  0  0  0  0  0  0
    1.3080  -22.9800   14.2290 C   0  0  0  0  0  0  0  0  0  0  0  0
    1.6230  -21.6230   14.0790 C   0  0  0  0  0  0  0  0  0  0  0  0
  1 15  1  0
  2  7  1  0
  2  8  1  0
  3  2  2  0
  4  5  2  0
  4  3  1  0
  5  6  1  0
  6  7  2  0
  7  1  1  0
  9 14  1  0
  9 10  2  0
 10 11  1  0
 11 12  2  0
 12  8  1  0
 13 12  1  0
 14 13  2  0
 15 16  1  0
 16 17  1  0
 17 22  1  0
 18 17  1  0
 19 18  1  0
 19 20  1  0
 20 23  1  0
 20 21  1  0
 22 21  1  0
 23 28  1  0
 24 23  2  0
 24 25  1  0
 25 26  2  0
 26 27  1  0
 28 27  2  0
M  END
$$$$
