lig_139
     RDKit          3D

 28 31  0  0  0  0  0  0  0  0999 V2000
   -1.8940   15.7490   16.7570 C   0  0  0  0  0  0  0  0  0  0  0  0
   -1.8130   14.8950   17.7990 C   0  0  0  0  0  0  0  0  0  0  0  0
   -2.3210   13.6030   17.8230 N   0  0  0  0  0  0  0  0  0  0  0  0
   -2.9040   13.2100   16.7290 C   0  0  0  0  0  0  0  0  0  0  0  0
   -3.4290   11.9490   16.6140 N   0  0  0  0  0  0  0  0  0  0  0  0
   -3.1840   11.1500   15.5070 C   0  0  0  0  0  0  0  0  0  0  0  0
   -2.2560   11.3570   14.7290 O   0  0  0  0  0  0  0  0  0  0  0  0
   -3.0870   14.0590   15.6280 N   0  0  0  0  0  0  0  0  0  0  0  0
   -3.8830   13.8220   14.5640 N   0  0  0  0  0  0  0  0  0  0  0  0
   -3.7140   14.9440   13.8520 C   0  0  0  0  0  0  0  0  0  0  0  0
   -2.9250   15.9010   14.4560 N   0  0  0  0  0  0  0  0  0  0  0  0
   -2.5970   15.3420   15.6000 C   0  0  0  0  0  0  0  0  0  0  0  0
   -0.2060   18.9180   15.6830 C   0  0  0  0  0  0  0  0  0  0  0  0
   -0.6900   17.5630   15.7600 N   0  0  0  0  0  0  0  0  0  0  0  0
   -1.3360   17.1140   16.8910 C   0  0  0  0  0  0  0  0  0  0  0  0
   -1.4490   17.7590   17.9250 O   0  0  0  0  0  0  0  0  0  0  0  0
   -4.3800   15.1660   12.4570 C   0  0  0  0  0  0  0  0  0  0  0  0
   -4.7400   16.3910   11.9280 C   0  0  0  0  0  0  0  0  0  0  0  0
   -5.3060   16.1360   10.6550 C   0  0  0  0  0  0  0  0  0  0  0  0
   -5.2580   14.7730   10.4840 C   0  0  0  0  0  0  0  0  0  0  0  0
   -4.7030   14.1760   11.5690 O   0  0  0  0  0  0  0  0  0  0  0  0
   -4.0820    9.9270   15.4480 C   0  0  0  0  0  0  0  0  0  0  0  0
   -3.4800    8.6850   16.0610 C   0  0  0  0  0  0  0  0  0  0  0  0
   -4.2770    7.5550   16.2950 C   0  0  0  0  0  0  0  0  0  0  0  0
   -3.7200    6.3920   16.8310 C   0  0  0  0  0  0  0  0  0  0  0  0
   -2.3610    6.3430   17.1320 C   0  0  0  0  0  0  0  0  0  0  0  0
   -1.5560    7.4560   16.8950 C   0  0  0  0  0  0  0  0  0  0  0  0
   -2.1110    8.6170   16.3560 C   0  0  0  0  0  0  0  0  0  0  0  0
  1 15  1  0
  1  2  2  0
  2  3  1  0
  4  3  2  0
  5  4  1  0
  6  5  1  0
  7  6  2  0
  8  4  1  0
  9  8  1  0
 10 11  1  0
 10  9  2  0
 11 12  2  0
 12  8  1  0
 12  1  1  0
 13 14  1  0
 14 15  1  0
 15 16  2  0
 17 10  1  0
 18 17  2  0
 19 18  1  0
 20 19  2  0
 20 21  1  0
 21 17  1  0
 22  6  1  0
 22 23  1  0
 23 24  2  0
 23 28  1  0
 24 25  1  0
 25 26  2  0
 27 26  1  0
 28 27  2  0
M  END
$$$$
