lig_384
     RDKit          3D

 24 27  0  0  0  0  0  0  0  0999 V2000
   -4.0170    8.7190   15.7310 N   0  0  0  0  0  0  0  0  0  0  0  0
   -3.6760    7.5130   16.3590 C   0  0  0  0  0  0  0  0  0  0  0  0
   -4.4660    6.5910   16.5350 O   0  0  0  0  0  0  0  0  0  0  0  0
   -2.3190    7.4660   16.7680 C   0  0  0  0  0  0  0  0  0  0  0  0
   -1.4350    8.4760   16.5300 C   0  0  0  0  0  0  0  0  0  0  0  0
   -0.1940    8.2050   17.0200 N   0  0  0  0  0  0  0  0  0  0  0  0
   -0.3070    7.0050   17.5580 C   0  0  0  0  0  0  0  0  0  0  0  0
    0.6470    6.1840   18.2230 C   0  0  0  0  0  0  0  0  0  0  0  0
    0.2800    4.9760   18.6910 C   0  0  0  0  0  0  0  0  0  0  0  0
   -1.0790    4.4800   18.5370 C   0  0  0  0  0  0  0  0  0  0  0  0
   -1.9860    5.2480   17.9130 C   0  0  0  0  0  0  0  0  0  0  0  0
   -1.6060    6.5000   17.4270 N   0  0  0  0  0  0  0  0  0  0  0  0
   -1.8050    9.6220   15.8650 N   0  0  0  0  0  0  0  0  0  0  0  0
   -3.1250    9.7690   15.4370 C   0  0  0  0  0  0  0  0  0  0  0  0
   -3.5010   10.7770   14.8300 O   0  0  0  0  0  0  0  0  0  0  0  0
   -5.6350    8.0690   13.9850 C   0  0  0  0  0  0  0  0  0  0  0  0
   -5.3930    8.8590   15.2650 C   0  0  0  0  0  0  0  0  0  0  0  0
   -0.8290   10.6590   15.5510 C   0  0  0  0  0  0  0  0  0  0  0  0
   -1.3160   12.0410   15.9250 C   0  0  0  0  0  0  0  0  0  0  0  0
   -1.2070   13.1040   15.0170 C   0  0  0  0  0  0  0  0  0  0  0  0
   -1.6730   14.3770   15.3550 C   0  0  0  0  0  0  0  0  0  0  0  0
   -2.2590   14.5970   16.5990 C   0  0  0  0  0  0  0  0  0  0  0  0
   -2.3820   13.5470   17.5070 C   0  0  0  0  0  0  0  0  0  0  0  0
   -1.9170   12.2740   17.1710 C   0  0  0  0  0  0  0  0  0  0  0  0
  1  2  1  0
  2  3  2  0
  2  4  1  0
  4 12  1  0
  5  4  2  0
  5  6  1  0
  6  7  2  0
  7  8  1  0
  8  9  2  0
 10  9  1  0
 11 10  2  0
 12  7  1  0
 12 11  1  0
 13  5  1  0
 14  1  1  0
 14 13  1  0
 15 14  2  0
 16 17  1  0
 17  1  1  0
 18 13  1  0
 18 19  1  0
 19 24  1  0
 20 21  1  0
 20 19  2  0
 21 22  2  0
 22 23  1  0
 24 23  2  0
M  END
$$$$
