lig_342
     RDKit          3D

 26 29  0  0  1  0  0  0  0  0999 V2000
   -2.1970    8.5240   16.3940 N   0  0  0  0  0  0  0  0  0  0  0  0
   -2.2420    7.2240   16.8430 C   0  0  0  0  0  0  0  0  0  0  0  0
   -3.2970    6.4580   16.5610 N   0  0  0  0  0  0  0  0  0  0  0  0
   -3.2940    5.1570   16.9560 C   0  0  0  0  0  0  0  0  0  0  0  0
   -2.2100    4.6550   17.6610 C   0  0  0  0  0  0  0  0  0  0  0  0
   -1.8820    3.1030   18.3260 S   0  0  0  0  0  0  0  0  0  0  0  0
   -0.3700    3.5980   18.9460 C   0  0  0  0  0  0  0  0  0  0  0  0
   -0.1150    4.9210   18.6690 C   0  0  0  0  0  0  0  0  0  0  0  0
   -1.1700    5.5360   17.9330 C   0  0  0  0  0  0  0  0  0  0  0  0
   -1.1800    6.8280   17.5350 N   0  0  0  0  0  0  0  0  0  0  0  0
   -4.4690    4.3250   16.5890 C   0  0  0  0  0  0  0  0  0  0  0  0
   -4.3260    3.3020   15.9240 O   0  0  0  0  0  0  0  0  0  0  0  0
   -5.7040    4.7610   17.0160 N   0  0  0  0  0  0  0  0  0  0  0  0
   -6.0730    5.5660   18.1690 C   0  0  0  0  0  0  0  0  0  0  0  0
   -7.2240    4.5810   18.3880 C   0  0  0  0  0  0  0  0  0  0  0  0
   -6.9510    4.0120   16.9950 C   0  0  0  0  0  0  0  0  0  0  0  0
   -3.4410    9.2080   16.0590 C   0  0  1  0  0  0  0  0  0  0  0  0
   -3.2090   10.7030   16.2200 C   0  0  0  0  0  0  0  0  0  0  0  0
   -1.9340   11.1710   16.5820 C   0  0  0  0  0  0  0  0  0  0  0  0
   -1.6970   12.5350   16.7170 C   0  0  0  0  0  0  0  0  0  0  0  0
   -2.7450   13.4050   16.4840 C   0  0  0  0  0  0  0  0  0  0  0  0
   -3.9840   13.0040   16.1320 N   0  0  0  0  0  0  0  0  0  0  0  0
   -4.1880   11.6690   16.0110 C   0  0  0  0  0  0  0  0  0  0  0  0
   -3.9060    8.7420   14.6510 C   0  0  0  0  0  0  0  0  0  0  0  0
   -5.7010    7.2320   14.2220 C   0  0  0  0  0  0  0  0  0  0  0  0
   -5.3220    8.5670   14.5280 O   0  0  0  0  0  0  0  0  0  0  0  0
  1  2  1  0
  2 10  1  0
  3  2  2  0
  3  4  1  0
  4  5  2  0
  5  9  1  0
  5  6  1  0
  6  7  1  0
  8  7  2  0
  9  8  1  0
 10  9  2  0
 11  4  1  0
 11 13  1  0
 12 11  2  0
 13 14  1  0
 14 15  1  0
 16 13  1  0
 16 15  1  0
 17 24  1  6
 17 18  1  0
 17  1  1  0
 18 19  2  0
 19 20  1  0
 21 20  2  0
 22 21  1  0
 23 22  2  0
 23 18  1  0
 25 26  1  0
 26 24  1  0
M  END
$$$$
