lig_423
     RDKit          3D

 28 31  0  0  1  0  0  0  0  0999 V2000
   -3.2920    8.9220   16.1820 C   0  0  0  0  0  0  0  0  0  0  0  0
   -1.9860    9.1560   16.7140 C   0  0  0  0  0  0  0  0  0  0  0  0
   -1.7290   10.4700   16.7910 N   0  0  0  0  0  0  0  0  0  0  0  0
   -2.8280   11.0920   16.3110 N   0  0  0  0  0  0  0  0  0  0  0  0
   -3.0120   12.4710   16.1840 C   0  0  0  0  0  0  0  0  0  0  0  0
   -4.1690   12.9610   15.7150 C   0  0  0  0  0  0  0  0  0  0  0  0
   -5.2260   12.0310   15.3620 C   0  0  0  0  0  0  0  0  0  0  0  0
   -5.0620   10.7000   15.4770 C   0  0  0  0  0  0  0  0  0  0  0  0
   -3.8180   10.1760   15.9480 C   0  0  0  0  0  0  0  0  0  0  0  0
   -0.9750    8.1860   17.1510 C   0  0  0  0  0  0  0  0  0  0  0  0
   -1.2420    6.8090   17.1650 C   0  0  0  0  0  0  0  0  0  0  0  0
   -0.2670    5.9020   17.5920 C   0  0  0  0  0  0  0  0  0  0  0  0
    0.9850    6.3590   17.9990 C   0  0  0  0  0  0  0  0  0  0  0  0
    1.2670    7.7230   17.9760 C   0  0  0  0  0  0  0  0  0  0  0  0
    0.2930    8.6310   17.5520 C   0  0  0  0  0  0  0  0  0  0  0  0
   -4.6440    7.0000   16.9180 C   0  0  0  0  0  0  0  0  0  0  0  0
   -3.9430    7.6650   15.9860 C   0  0  0  0  0  0  0  0  0  0  0  0
   -6.0950    5.7130   15.5920 O   0  0  0  0  0  0  0  0  0  0  0  0
   -5.3360    5.7360   16.5560 C   0  0  0  0  0  0  0  0  0  0  0  0
   -5.1010    4.6520   17.4070 N   0  0  0  0  0  0  0  0  0  0  0  0
   -3.7560    4.4280   17.9480 C   0  0  0  0  0  0  0  0  0  0  0  0
   -2.9160    3.6450   16.9350 C   0  0  0  0  0  0  0  0  0  0  0  0
   -3.6120    2.3470   16.5170 C   0  0  0  0  0  0  0  0  0  0  0  0
   -5.0700    2.5780   16.0930 C   0  0  0  0  0  0  0  0  0  0  0  0
   -5.8240    3.3780   17.1720 C   0  0  2  0  0  0  0  0  0  0  0  0
   -7.3300    3.5410   16.8850 C   0  0  0  0  0  0  0  0  0  0  0  0
   -8.1370    3.9750   18.1060 C   0  0  0  0  0  0  0  0  0  0  0  0
   -8.7270    5.2490   17.9050 O   0  0  0  0  0  0  0  0  0  0  0  0
  1  2  1  0
  2  3  2  0
  2 10  1  0
  4  3  1  0
  5  4  1  0
  6  5  2  0
  7  8  2  0
  7  6  1  0
  8  9  1  0
  9  1  2  0
  9  4  1  0
 10 11  2  0
 10 15  1  0
 11 12  1  0
 12 13  2  0
 14 13  1  0
 15 14  2  0
 17  1  1  0
 17 16  2  0
 18 19  2  0
 19 16  1  0
 19 20  1  0
 20 21  1  0
 22 21  1  0
 23 22  1  0
 24 23  1  0
 24 25  1  0
 25 26  1  6
 25 20  1  0
 26 27  1  0
 28 27  1  0
M  END
$$$$
