lig_414
     RDKit          3D

 24 27  0  0  0  0  0  0  0  0999 V2000
   -2.9670    5.6600   17.2120 C   0  0  0  0  0  0  0  0  0  0  0  0
   -2.7910    6.9430   16.7240 N   0  0  0  0  0  0  0  0  0  0  0  0
   -1.5590    7.2420   17.0740 C   0  0  0  0  0  0  0  0  0  0  0  0
   -0.7260    8.3910   16.9220 C   0  0  0  0  0  0  0  0  0  0  0  0
    0.5220    8.2830   17.4420 C   0  0  0  0  0  0  0  0  0  0  0  0
    1.0490    7.1950   18.1160 N   0  0  0  0  0  0  0  0  0  0  0  0
    0.2870    6.1430   18.2440 C   0  0  0  0  0  0  0  0  0  0  0  0
    0.7220    5.0130   18.8870 N   0  0  0  0  0  0  0  0  0  0  0  0
   -1.0170    6.1730   17.7260 N   0  0  0  0  0  0  0  0  0  0  0  0
   -1.8960    5.1550   17.8530 N   0  0  0  0  0  0  0  0  0  0  0  0
   -1.1630    9.6120   16.2210 C   0  0  0  0  0  0  0  0  0  0  0  0
   -1.1560    9.7240   14.7660 C   0  0  0  0  0  0  0  0  0  0  0  0
   -1.5670   10.8320   14.1360 C   0  0  0  0  0  0  0  0  0  0  0  0
   -2.0590   11.9970   14.9110 C   0  0  0  0  0  0  0  0  0  0  0  0
   -2.4160   13.0080   14.3130 O   0  0  0  0  0  0  0  0  0  0  0  0
   -2.0760   11.8340   16.2930 N   0  0  0  0  0  0  0  0  0  0  0  0
   -2.5690   12.9180   17.1270 C   0  0  0  0  0  0  0  0  0  0  0  0
   -1.6440   10.6680   16.9100 C   0  0  0  0  0  0  0  0  0  0  0  0
   -7.8390    4.6370   17.8060 C   0  0  0  0  0  0  0  0  0  0  0  0
   -6.4840    4.3720   17.2610 C   0  0  0  0  0  0  0  0  0  0  0  0
   -6.1100    3.3270   16.4390 C   0  0  0  0  0  0  0  0  0  0  0  0
   -4.4410    3.4360   16.0690 S   0  0  0  0  0  0  0  0  0  0  0  0
   -4.3320    4.8610   17.0250 C   0  0  0  0  0  0  0  0  0  0  0  0
   -5.4610    5.2450   17.5900 N   0  0  0  0  0  0  0  0  0  0  0  0
  1 10  2  0
  2  3  2  0
  2  1  1  0
  3  9  1  0
  4  3  1  0
  4  5  2  0
  5  6  1  0
  6  7  2  0
  7  8  1  0
  9 10  1  0
  9  7  1  0
 11 18  2  0
 11  4  1  0
 12 11  1  0
 13 12  2  0
 13 14  1  0
 14 16  1  0
 15 14  2  0
 16 18  1  0
 16 17  1  0
 20 24  1  0
 20 19  1  0
 21 20  2  0
 22 21  1  0
 22 23  1  0
 23  1  1  0
 23 24  2  0
M  END
$$$$
