lig_017
     RDKit          3D

 28 32  0  0  1  0  0  0  0  0999 V2000
  185.3700  169.7590  172.8820 C   0  0  2  0  0  0  0  0  0  0  0  0
  186.1980  170.0280  174.1700 C   0  0  0  0  0  0  0  0  0  0  0  0
  186.2690  168.8050  175.0650 C   0  0  0  0  0  0  0  0  0  0  0  0
  184.9620  168.4330  175.4860 O   0  0  0  0  0  0  0  0  0  0  0  0
  184.0800  168.0530  174.4150 C   0  0  1  0  0  0  0  0  0  0  0  0
  184.3910  166.6450  173.9360 C   0  0  0  0  0  0  0  0  0  0  0  0
  183.8260  165.7950  175.0560 C   0  0  0  0  0  0  0  0  0  0  0  0
  182.6370  166.4540  175.5060 O   0  0  0  0  0  0  0  0  0  0  0  0
  182.6890  167.8160  175.0350 C   0  0  0  0  0  0  0  0  0  0  0  0
  184.0030  169.1650  173.3490 C   0  0  0  0  0  0  0  0  0  0  0  0
  187.4430  167.2280  170.0910 C   0  0  0  0  0  0  0  0  0  0  0  0
  188.0740  167.5620  171.2790 C   0  0  0  0  0  0  0  0  0  0  0  0
  187.4140  168.3760  172.1980 C   0  0  0  0  0  0  0  0  0  0  0  0
  186.1240  168.8330  171.9160 C   0  0  0  0  0  0  0  0  0  0  0  0
  185.5100  168.5120  170.7490 N   0  0  0  0  0  0  0  0  0  0  0  0
  186.1740  167.7280  169.8710 C   0  0  0  0  0  0  0  0  0  0  0  0
  185.1190  171.1470  172.1970 C   0  0  0  0  0  0  0  0  0  0  0  0
  185.9120  172.3450  172.7460 C   0  0  0  0  0  0  0  0  0  0  0  0
  185.0150  173.3240  173.3560 N   0  0  0  0  0  0  0  0  0  0  0  0
  184.7980  174.5010  172.5120 C   0  0  0  0  0  0  0  0  0  0  0  0
  185.9290  175.4810  172.5810 C   0  0  0  0  0  0  0  0  0  0  0  0
  186.6960  175.8360  174.0890 S   0  0  0  0  0  0  0  0  0  0  0  0
  187.7930  176.9500  173.3700 C   0  0  0  0  0  0  0  0  0  0  0  0
  187.5730  177.0380  172.0220 C   0  0  0  0  0  0  0  0  0  0  0  0
  186.5180  176.2050  171.5750 C   0  0  0  0  0  0  0  0  0  0  0  0
  186.3190  176.3310  170.1070 C   0  0  0  0  0  0  0  0  0  0  0  0
  187.1210  177.6220  169.7700 C   0  0  0  0  0  0  0  0  0  0  0  0
  188.1770  177.7990  170.9000 C   0  0  0  0  0  0  0  0  0  0  0  0
  1 17  1  6
  1 10  1  0
  1  2  1  0
  2  3  1  0
  3  4  1  0
  5 10  1  6
  5  9  1  0
  5  4  1  0
  6  5  1  0
  6  7  1  0
  7  8  1  0
  9  8  1  0
 11 12  2  0
 12 13  1  0
 14 13  2  0
 14  1  1  0
 15 14  1  0
 16 11  1  0
 16 15  2  0
 17 18  1  0
 18 19  1  0
 20 21  1  0
 20 19  1  0
 21 22  1  0
 23 22  1  0
 24 23  2  0
 25 24  1  0
 25 21  2  0
 26 25  1  0
 27 26  1  0
 27 28  1  0
 28 24  1  0
M  END
$$$$
