lig_266
     RDKit          3D

 24 26  0  0  0  0  0  0  0  0999 V2000
   -1.5230    6.0980   17.5430 C   0  0  0  0  0  0  0  0  0  0  0  0
   -0.2990    6.7580   17.6190 C   0  0  0  0  0  0  0  0  0  0  0  0
   -0.1180    7.9990   17.1340 N   0  0  0  0  0  0  0  0  0  0  0  0
   -1.1510    8.6320   16.5270 C   0  0  0  0  0  0  0  0  0  0  0  0
   -2.4100    8.0470   16.4000 C   0  0  0  0  0  0  0  0  0  0  0  0
   -2.6030    6.7520   16.9200 C   0  0  0  0  0  0  0  0  0  0  0  0
   -3.9040    6.0960   16.8260 C   0  0  0  0  0  0  0  0  0  0  0  0
   -5.0520    6.0980   17.5900 C   0  0  0  0  0  0  0  0  0  0  0  0
   -5.9590    5.2210   16.9450 C   0  0  0  0  0  0  0  0  0  0  0  0
   -5.3060    4.7400   15.8360 C   0  0  0  0  0  0  0  0  0  0  0  0
   -4.0550    5.2610   15.7600 O   0  0  0  0  0  0  0  0  0  0  0  0
    0.8150    6.2230   18.2560 N   0  0  0  0  0  0  0  0  0  0  0  0
   -1.6840    3.6900   18.4990 N   0  0  0  0  0  0  0  0  0  0  0  0
   -1.6400    4.7650   18.0620 C   0  0  0  0  0  0  0  0  0  0  0  0
   -3.4880    8.7540   15.7700 C   0  0  0  0  0  0  0  0  0  0  0  0
   -4.3770    9.3240   15.2860 N   0  0  0  0  0  0  0  0  0  0  0  0
   -0.8050   10.2780   15.9120 S   0  0  0  0  0  0  0  0  0  0  0  0
   -1.7420   11.2990   17.1040 C   0  0  0  0  0  0  0  0  0  0  0  0
   -2.1610   12.6200   16.5040 C   0  0  0  0  0  0  0  0  0  0  0  0
   -2.1590   13.7820   17.2750 C   0  0  0  0  0  0  0  0  0  0  0  0
   -2.5560   14.9810   16.6890 C   0  0  0  0  0  0  0  0  0  0  0  0
   -2.9410   14.9920   15.3550 C   0  0  0  0  0  0  0  0  0  0  0  0
   -2.9120   13.7970   14.6580 C   0  0  0  0  0  0  0  0  0  0  0  0
   -2.5310   12.6190   15.1980 N   0  0  0  0  0  0  0  0  0  0  0  0
  1  2  1  0
  1 14  1  0
  2 12  1  0
  3  2  2  0
  4  3  1  0
  5  4  2  0
  5  6  1  0
  6  1  2  0
  7  6  1  0
  7  8  2  0
  9  8  1  0
 10  9  2  0
 11 10  1  0
 11  7  1  0
 14 13  3  0
 15  5  1  0
 16 15  3  0
 17  4  1  0
 17 18  1  0
 19 18  1  0
 19 20  2  0
 21 20  1  0
 22 21  2  0
 23 24  2  0
 23 22  1  0
 24 19  1  0
M  END
$$$$
