lig_010
     RDKit          3D

 24 29  0  0  1  0  0  0  0  0999 V2000
  185.2710  172.2920  172.8730 C   0  0  0  0  0  0  0  0  0  0  0  0
  185.9440  172.3170  174.1020 C   0  0  0  0  0  0  0  0  0  0  0  0
  186.1320  171.1320  174.8500 C   0  0  0  0  0  0  0  0  0  0  0  0
  185.6170  169.9200  174.3910 C   0  0  0  0  0  0  0  0  0  0  0  0
  184.9190  169.9520  173.1990 C   0  0  0  0  0  0  0  0  0  0  0  0
  184.7810  171.0880  172.4230 C   0  0  0  0  0  0  0  0  0  0  0  0
  184.1860  170.8090  171.2120 O   0  0  0  0  0  0  0  0  0  0  0  0
  184.3270  169.3490  171.1060 C   0  0  1  0  0  0  0  0  0  0  0  0
  185.6560  169.0650  170.3680 C   0  0  0  0  0  0  0  0  0  0  0  0
  186.2650  167.6990  170.6620 C   0  0  0  0  0  0  0  0  0  0  0  0
  186.3760  167.4380  172.1680 C   0  0  0  0  0  0  0  0  0  0  0  0
  184.9930  167.4920  172.8420 C   0  0  1  0  0  0  0  0  0  0  0  0
  185.0400  167.3910  174.4140 C   0  0  1  0  0  0  0  0  0  0  0  0
  185.8380  168.5860  175.0600 C   0  0  0  0  0  0  0  0  0  0  0  0
  183.6850  167.3260  175.0540 N   0  0  0  0  0  0  0  0  0  0  0  0
  182.7710  168.3840  174.5860 C   0  0  0  0  0  0  0  0  0  0  0  0
  182.8010  168.6850  173.0770 C   0  0  0  0  0  0  0  0  0  0  0  0
  184.2460  168.7950  172.5400 C   0  0  1  0  0  0  0  0  0  0  0  0
  185.1250  173.4140  172.1170 O   0  0  0  0  0  0  0  0  0  0  0  0
  184.2800  166.3520  172.3180 O   0  0  0  0  0  0  0  0  0  0  0  0
  183.0370  166.0110  175.0070 C   0  0  0  0  0  0  0  0  0  0  0  0
  182.5470  165.5850  176.3620 C   0  0  0  0  0  0  0  0  0  0  0  0
  181.1540  165.9670  176.8020 C   0  0  0  0  0  0  0  0  0  0  0  0
  181.4780  164.5300  176.5120 C   0  0  0  0  0  0  0  0  0  0  0  0
  1  2  1  0
  2  3  2  0
  4  3  1  0
  4 14  1  0
  5  4  2  0
  6  1  2  0
  6  5  1  0
  7  6  1  0
  8  9  1  1
  8  7  1  0
  8 18  1  0
  9 10  1  0
 10 11  1  0
 11 12  1  0
 12 20  1  6
 12 13  1  0
 13 15  1  0
 13 14  1  1
 16 15  1  0
 17 16  1  0
 18 12  1  0
 18 17  1  1
 18  5  1  0
 19  1  1  0
 21 15  1  0
 21 22  1  0
 22 24  1  0
 22 23  1  0
 24 23  1  0
M  END
$$$$
