lig_443
     RDKit          3D

 23 26  0  0  0  0  0  0  0  0999 V2000
    1.0700  -18.5130   13.9170 N   0  0  0  0  0  0  0  0  0  0  0  0
   -0.0850  -17.5950   14.0220 C   0  0  0  0  0  0  0  0  0  0  0  0
    0.3720  -16.1200   13.9440 C   0  0  0  0  0  0  0  0  0  0  0  0
    1.1960  -15.7730   12.7600 N   0  0  0  0  0  0  0  0  0  0  0  0
    2.3310  -16.7240   12.7100 C   0  0  0  0  0  0  0  0  0  0  0  0
    1.9530  -18.2250   12.7630 C   0  0  0  0  0  0  0  0  0  0  0  0
    0.2700  -24.3370   14.8520 Cl  0  0  0  0  0  0  0  0  0  0  0  0
    0.4970  -22.6520   14.5920 C   0  0  0  0  0  0  0  0  0  0  0  0
    0.0680  -21.7380   15.5470 C   0  0  0  0  0  0  0  0  0  0  0  0
    0.2540  -20.3660   15.3340 C   0  0  0  0  0  0  0  0  0  0  0  0
    0.8570  -19.8770   14.1640 C   0  0  0  0  0  0  0  0  0  0  0  0
    1.2930  -20.8330   13.2270 C   0  0  0  0  0  0  0  0  0  0  0  0
    1.1140  -22.2060   13.4310 C   0  0  0  0  0  0  0  0  0  0  0  0
    0.4380  -15.7950   11.5020 C   0  0  0  0  0  0  0  0  0  0  0  0
    0.0620  -14.4330   11.0420 C   0  0  0  0  0  0  0  0  0  0  0  0
   -0.7380  -13.4780   11.6400 C   0  0  0  0  0  0  0  0  0  0  0  0
   -0.8490  -12.3560   10.8660 N   0  0  0  0  0  0  0  0  0  0  0  0
   -0.1330  -12.6040    9.7910 C   0  0  0  0  0  0  0  0  0  0  0  0
    0.1190  -11.8130    8.6330 C   0  0  0  0  0  0  0  0  0  0  0  0
    0.8940  -12.2990    7.6450 C   0  0  0  0  0  0  0  0  0  0  0  0
    1.4910  -13.6230    7.7300 C   0  0  0  0  0  0  0  0  0  0  0  0
    1.2580  -14.3730    8.8190 C   0  0  0  0  0  0  0  0  0  0  0  0
    0.4510  -13.8700    9.8410 N   0  0  0  0  0  0  0  0  0  0  0  0
  1  2  1  0
  1 11  1  0
  3  2  1  0
  4  3  1  0
  5  4  1  0
  5  6  1  0
  6  1  1  0
  8  7  1  0
  8  9  1  0
 10  9  2  0
 11 10  1  0
 12 13  1  0
 12 11  2  0
 13  8  2  0
 14  4  1  0
 15 14  1  0
 15 16  2  0
 17 16  1  0
 18 23  1  0
 18 17  2  0
 19 18  1  0
 20 21  1  0
 20 19  2  0
 21 22  2  0
 22 23  1  0
 23 15  1  0
M  END
$$$$
