lig_021
     RDKit          3D

 25 26  0  0  1  0  0  0  0  0999 V2000
   22.4150   16.1580    7.9900 C   0  0  0  0  0  0  0  0  0  0  0  0
   23.2120   15.0070    8.1190 C   0  0  0  0  0  0  0  0  0  0  0  0
   23.8120   14.4210    6.9960 C   0  0  0  0  0  0  0  0  0  0  0  0
   23.5850   14.9300    5.7130 C   0  0  0  0  0  0  0  0  0  0  0  0
   22.8340   16.1120    5.6000 C   0  0  0  0  0  0  0  0  0  0  0  0
   22.2330   16.7260    6.7140 C   0  0  0  0  0  0  0  0  0  0  0  0
   20.5840   17.2580    9.2110 N   0  0  0  0  0  0  0  0  0  0  0  0
   21.8400   16.7060    9.2650 C   0  0  0  0  0  0  0  0  0  0  0  0
   22.4900   16.6390   10.3040 O   0  0  0  0  0  0  0  0  0  0  0  0
   19.9120   17.8250   10.3670 C   0  0  0  0  0  0  0  0  0  0  0  0
   19.9010   19.7580   11.9400 N   0  0  0  0  0  0  0  0  0  0  0  0
   18.4560   20.0540   11.9190 C   0  0  0  0  0  0  0  0  0  0  0  0
   18.1020   20.4830   10.4990 C   0  0  0  0  0  0  0  0  0  0  0  0
   19.3550   20.2340    9.6760 C   0  0  0  0  0  0  0  0  0  0  0  0
   20.2200   19.3310   10.5530 C   0  0  2  0  0  0  0  0  0  0  0  0
   22.1800   20.5890   12.4510 C   0  0  0  0  0  0  0  0  0  0  0  0
   20.6980   20.9300   12.3390 C   0  0  0  0  0  0  0  0  0  0  0  0
   24.8330   12.9830    7.2490 S   0  0  0  0  0  0  0  0  0  0  0  0
   26.2140   13.3860    7.0330 O   0  0  0  0  0  0  0  0  0  0  0  0
   24.2610   11.8970    6.4770 O   0  0  0  0  0  0  0  0  0  0  0  0
   24.6040   12.6310    8.9820 C   0  0  0  0  0  0  0  0  0  0  0  0
   25.8050   13.0600    9.8010 C   0  0  0  0  0  0  0  0  0  0  0  0
   24.2540   14.4580    4.5710 N   0  0  0  0  0  0  0  0  0  0  0  0
   21.4720   17.8650    6.6220 O   0  0  0  0  0  0  0  0  0  0  0  0
   22.1440   19.1140    6.4950 C   0  0  0  0  0  0  0  0  0  0  0  0
  1  2  1  0
  1  8  1  0
  3 18  1  0
  3  2  2  0
  4  3  1  0
  5  4  2  0
  5  6  1  0
  6  1  2  0
  7  8  1  0
  7 10  1  0
  8  9  2  0
 11 17  1  0
 12 11  1  0
 13 12  1  0
 14 13  1  0
 14 15  1  0
 15 10  1  1
 15 11  1  0
 17 16  1  0
 18 21  1  0
 19 18  2  0
 20 18  2  0
 21 22  1  0
 23  4  1  0
 24  6  1  0
 25 24  1  0
M  END
$$$$
