lig_016
     RDKit          3D

 22 25  0  0  1  0  0  0  0  0999 V2000
  179.2010  169.8650  138.5310 C   0  0  2  0  0  0  0  0  0  0  0  0
  179.3800  171.0220  139.5060 C   0  0  0  0  0  0  0  0  0  0  0  0
  179.0210  172.2230  138.6430 C   0  0  2  0  0  0  0  0  0  0  0  0
  178.7870  173.5340  139.3560 C   0  0  0  0  0  0  0  0  0  0  0  0
  179.6910  173.9180  140.3680 C   0  0  0  0  0  0  0  0  0  0  0  0
  179.5450  175.1240  141.0580 C   0  0  0  0  0  0  0  0  0  0  0  0
  178.4980  175.9800  140.7460 C   0  0  0  0  0  0  0  0  0  0  0  0
  177.6070  175.6330  139.7340 C   0  0  0  0  0  0  0  0  0  0  0  0
  177.7570  174.4340  139.0220 C   0  0  0  0  0  0  0  0  0  0  0  0
  176.7710  174.2360  138.0770 O   0  0  0  0  0  0  0  0  0  0  0  0
  177.1340  173.7740  136.8340 C   0  0  0  0  0  0  0  0  0  0  0  0
  176.9040  174.6080  135.7400 C   0  0  0  0  0  0  0  0  0  0  0  0
  177.1580  174.1410  134.4510 C   0  0  0  0  0  0  0  0  0  0  0  0
  177.6190  172.8380  134.2600 C   0  0  0  0  0  0  0  0  0  0  0  0
  177.8290  171.9990  135.3560 C   0  0  0  0  0  0  0  0  0  0  0  0
  177.5820  172.4600  136.6530 C   0  0  0  0  0  0  0  0  0  0  0  0
  177.8280  171.6410  137.8850 C   0  0  1  0  0  0  0  0  0  0  0  0
  178.1560  170.2670  137.6150 O   0  0  0  0  0  0  0  0  0  0  0  0
  178.8230  168.5120  139.1660 C   0  0  0  0  0  0  0  0  0  0  0  0
  179.7760  166.4640  138.2290 C   0  0  0  0  0  0  0  0  0  0  0  0
  179.8350  167.4540  139.2960 N   0  0  0  0  0  0  0  0  0  0  0  0
  181.1900  167.9470  139.5010 C   0  0  0  0  0  0  0  0  0  0  0  0
  1 19  1  1
  1  2  1  0
  3  4  1  0
  3  2  1  1
  4  5  2  0
  5  6  1  0
  7  6  2  0
  8  7  1  0
  9  4  1  0
  9  8  2  0
 10  9  1  0
 11 10  1  0
 12 11  2  0
 13 12  1  0
 14 13  2  0
 14 15  1  0
 15 16  2  0
 16 11  1  0
 17 16  1  0
 17  3  1  0
 17 18  1  6
 18  1  1  0
 19 21  1  0
 20 21  1  0
 21 22  1  0
M  END
$$$$
