lig_160
     RDKit          3D

 27 31  0  0  1  0  0  0  0  0999 V2000
   -1.8720    4.1210   18.2420 C   0  0  0  0  0  0  0  0  0  0  0  0
   -0.5630    4.0240   18.7350 C   0  0  0  0  0  0  0  0  0  0  0  0
    0.3290    5.0960   18.6120 C   0  0  0  0  0  0  0  0  0  0  0  0
   -0.0740    6.2770   17.9970 C   0  0  0  0  0  0  0  0  0  0  0  0
   -1.3750    6.3840   17.5040 C   0  0  0  0  0  0  0  0  0  0  0  0
   -2.2950    5.3110   17.6170 C   0  0  0  0  0  0  0  0  0  0  0  0
   -3.6300    5.4160   17.1100 N   0  0  0  0  0  0  0  0  0  0  0  0
   -4.0190    6.5120   16.5190 C   0  0  0  0  0  0  0  0  0  0  0  0
   -5.2920    6.6390   16.0210 N   0  0  0  0  0  0  0  0  0  0  0  0
   -3.1370    7.5990   16.4010 N   0  0  0  0  0  0  0  0  0  0  0  0
   -3.4630    8.7980   15.8640 N   0  0  0  0  0  0  0  0  0  0  0  0
   -2.3030    9.4610   16.0060 C   0  0  0  0  0  0  0  0  0  0  0  0
   -1.2920    8.7520   16.6190 N   0  0  0  0  0  0  0  0  0  0  0  0
   -1.8550    7.5880   16.8610 C   0  0  0  0  0  0  0  0  0  0  0  0
   -2.1060   10.8750   15.5590 C   0  0  2  0  0  0  0  0  0  0  0  0
   -1.5580   10.9500   14.1240 C   0  0  0  0  0  0  0  0  0  0  0  0
   -0.7860   12.2440   13.8630 C   0  0  0  0  0  0  0  0  0  0  0  0
   -1.2880   13.3840   14.7480 C   0  0  0  0  0  0  0  0  0  0  0  0
   -1.0840   13.1110   16.1780 N   0  0  0  0  0  0  0  0  0  0  0  0
   -1.2150   11.6770   16.5210 C   0  0  0  0  0  0  0  0  0  0  0  0
   -1.9390   13.9480   17.0310 C   0  0  0  0  0  0  0  0  0  0  0  0
   -1.4010   15.3620   17.1890 C   0  0  0  0  0  0  0  0  0  0  0  0
    0.0860   15.4580   17.4300 C   0  0  0  0  0  0  0  0  0  0  0  0
   -2.2760   16.3480   17.9420 C   0  0  0  0  0  0  0  0  0  0  0  0
   -2.0870   16.5040   16.4620 C   0  0  0  0  0  0  0  0  0  0  0  0
   -2.6710    2.0110   17.4490 C   0  0  0  0  0  0  0  0  0  0  0  0
   -2.8080    3.1190   18.3260 O   0  0  0  0  0  0  0  0  0  0  0  0
  1 27  1  0
  1  2  1  0
  3  2  2  0
  4  3  1  0
  5  6  1  0
  5  4  2  0
  6  1  2  0
  7  6  1  0
  8  7  2  0
  9  8  1  0
 10  8  1  0
 10 14  1  0
 11 12  2  0
 11 10  1  0
 12 13  1  0
 13 14  2  0
 14  5  1  0
 15 12  1  1
 15 20  1  0
 16 15  1  0
 17 16  1  0
 17 18  1  0
 18 19  1  0
 19 20  1  0
 19 21  1  0
 21 22  1  0
 22 23  1  0
 22 24  1  0
 25 22  1  0
 25 24  1  0
 26 27  1  0
M  END
$$$$
