lig_070
     RDKit          3D

 19 21  0  0  1  0  0  0  0  0999 V2000
   22.4220   19.7490    6.9570 C   0  0  0  0  0  0  0  0  0  0  0  0
   21.6940   18.4150    6.8440 C   0  0  1  0  0  0  0  0  0  0  0  0
   22.3470   17.5400    5.7650 C   0  0  0  0  0  0  0  0  0  0  0  0
   21.9890   16.1180    6.1950 C   0  0  1  0  0  0  0  0  0  0  0  0
   23.0510   15.0780    5.8850 C   0  0  0  0  0  0  0  0  0  0  0  0
   24.0700   15.2970    6.9090 N   0  0  0  0  0  0  0  0  0  0  0  0
   23.3360   15.6040    8.1490 C   0  0  0  0  0  0  0  0  0  0  0  0
   21.9760   16.1830    7.7260 C   0  0  1  0  0  0  0  0  0  0  0  0
   21.8260   17.6020    8.0510 N   0  0  0  0  0  0  0  0  0  0  0  0
   21.0620   17.8850    9.1650 C   0  0  0  0  0  0  0  0  0  0  0  0
   21.0580   17.0040   10.1780 N   0  0  0  0  0  0  0  0  0  0  0  0
   20.3400   17.3040   11.2740 C   0  0  0  0  0  0  0  0  0  0  0  0
   19.6100   18.4550   11.4060 C   0  0  0  0  0  0  0  0  0  0  0  0
   19.6440   19.3140   10.3260 C   0  0  0  0  0  0  0  0  0  0  0  0
   20.3700   19.0310    9.2120 N   0  0  0  0  0  0  0  0  0  0  0  0
   18.8760   20.6190   10.3970 C   0  0  0  0  0  0  0  0  0  0  0  0
   18.2890   20.9420    9.2060 F   0  0  0  0  0  0  0  0  0  0  0  0
   17.8550   20.5770   11.3020 F   0  0  0  0  0  0  0  0  0  0  0  0
   19.6320   21.7020   10.7360 F   0  0  0  0  0  0  0  0  0  0  0  0
  2  1  1  1
  2  9  1  0
  3  2  1  0
  4  3  1  6
  4  8  1  0
  5  4  1  0
  5  6  1  0
  6  7  1  0
  8  9  1  0
  8  7  1  1
  9 10  1  0
 10 15  1  0
 10 11  2  0
 11 12  1  0
 12 13  2  0
 14 16  1  0
 14 13  1  0
 15 14  2  0
 16 19  1  0
 16 18  1  0
 17 16  1  0
M  END
$$$$
