lig_305
     RDKit          3D

 22 25  0  0  1  0  0  0  0  0999 V2000
   -1.0380  -23.6900   14.8260 C   0  0  0  0  0  0  0  0  0  0  0  0
   -1.0780  -24.5970   13.7610 C   0  0  0  0  0  0  0  0  0  0  0  0
   -1.2820  -24.1370   12.4730 C   0  0  0  0  0  0  0  0  0  0  0  0
   -1.4190  -22.7700   12.2590 C   0  0  0  0  0  0  0  0  0  0  0  0
   -1.3970  -21.8430   13.3310 C   0  0  0  0  0  0  0  0  0  0  0  0
   -1.2760  -22.2920   14.6710 C   0  0  0  0  0  0  0  0  0  0  0  0
   -1.3520  -21.4510   15.7930 N   0  0  0  0  0  0  0  0  0  0  0  0
   -2.1170  -21.9970   16.9510 C   0  0  0  0  0  0  0  0  0  0  0  0
   -3.0560  -20.9440   17.5850 C   0  0  0  0  0  0  0  0  0  0  0  0
   -2.3530  -19.7500   18.0970 N   0  0  0  0  0  0  0  0  0  0  0  0
   -3.2780  -18.6270   18.2210 C   0  0  0  0  0  0  0  0  0  0  0  0
   -1.1930  -19.4190   17.2350 C   0  0  0  0  0  0  0  0  0  0  0  0
   -1.2640  -19.9660   15.7660 C   0  0  1  0  0  0  0  0  0  0  0  0
   -0.1360  -19.4630   14.8690 C   0  0  0  0  0  0  0  0  0  0  0  0
    1.0330  -18.8540   15.3500 C   0  0  0  0  0  0  0  0  0  0  0  0
    2.0070  -18.3750   14.4690 C   0  0  0  0  0  0  0  0  0  0  0  0
    1.8340  -18.5070   13.0950 C   0  0  0  0  0  0  0  0  0  0  0  0
    0.6930  -19.1310   12.5970 C   0  0  0  0  0  0  0  0  0  0  0  0
   -0.2900  -19.6120   13.4740 C   0  0  0  0  0  0  0  0  0  0  0  0
   -1.4810  -20.3800   12.9500 C   0  0  0  0  0  0  0  0  0  0  0  0
   -1.5450  -25.4220   16.2400 C   0  0  0  0  0  0  0  0  0  0  0  0
   -0.7440  -24.2520   16.0530 O   0  0  0  0  0  0  0  0  0  0  0  0
  1 22  1  0
  2  1  2  0
  3  2  1  0
  4  3  2  0
  4  5  1  0
  5  6  2  0
  6  1  1  0
  6  7  1  0
  7  8  1  0
  8  9  1  0
  9 10  1  0
 10 11  1  0
 12 10  1  0
 13  7  1  0
 13 12  1  1
 14 15  2  0
 14 13  1  0
 16 15  1  0
 17 16  2  0
 18 17  1  0
 18 19  2  0
 19 14  1  0
 20  5  1  0
 20 19  1  0
 22 21  1  0
M  END
$$$$
