lig_014
     RDKit          3D

 33 38  0  0  1  0  0  0  0  0999 V2000
    6.2500  -26.4690   59.5280 C   0  0  0  0  0  0  0  0  0  0  0  0
    7.3100  -27.3200   59.8120 C   0  0  0  0  0  0  0  0  0  0  0  0
    7.8440  -27.3270   61.0970 C   0  0  0  0  0  0  0  0  0  0  0  0
    7.3190  -26.4900   62.1000 C   0  0  0  0  0  0  0  0  0  0  0  0
    6.2580  -25.6060   61.8010 C   0  0  0  0  0  0  0  0  0  0  0  0
    5.7060  -25.6380   60.5080 C   0  0  0  0  0  0  0  0  0  0  0  0
    5.6620  -24.6960   62.9000 C   0  0  2  0  0  0  0  0  0  0  0  0
    5.2040  -23.3250   62.3080 C   0  0  0  0  0  0  0  0  0  0  0  0
    5.5140  -22.1000   63.1740 C   0  0  0  0  0  0  0  0  0  0  0  0
    5.3160  -22.3730   64.6520 C   0  0  0  0  0  0  0  0  0  0  0  0
    6.2020  -23.5140   65.1450 C   0  0  0  0  0  0  0  0  0  0  0  0
    6.7000  -24.4550   64.0240 C   0  0  1  0  0  0  0  0  0  0  0  0
    7.1410  -25.8200   64.5850 C   0  0  2  0  0  0  0  0  0  0  0  0
    7.9280  -26.5660   63.4820 C   0  0  0  0  0  0  0  0  0  0  0  0
    5.9840  -26.5350   65.1790 N   0  0  0  0  0  0  0  0  0  0  0  0
    4.8820  -26.7530   64.2320 C   0  0  0  0  0  0  0  0  0  0  0  0
    4.4590  -25.4640   63.5070 C   0  0  0  0  0  0  0  0  0  0  0  0
    5.6770  -26.5310   58.2540 O   0  0  0  0  0  0  0  0  0  0  0  0
    3.8340  -27.6810   59.1010 O   0  0  0  0  0  0  0  0  0  0  0  0
    4.3800  -27.0160   58.2310 C   0  0  0  0  0  0  0  0  0  0  0  0
    3.7820  -26.6410   57.0640 N   0  0  0  0  0  0  0  0  0  0  0  0
    2.4580  -27.0860   56.7190 C   0  0  0  0  0  0  0  0  0  0  0  0
    1.5190  -25.9190   56.5840 C   0  0  0  0  0  0  0  0  0  0  0  0
    1.7960  -24.7040   57.2260 C   0  0  0  0  0  0  0  0  0  0  0  0
    0.9070  -23.6320   57.1220 C   0  0  0  0  0  0  0  0  0  0  0  0
   -0.2680  -23.7670   56.3840 C   0  0  0  0  0  0  0  0  0  0  0  0
   -0.5570  -24.9740   55.7510 C   0  0  0  0  0  0  0  0  0  0  0  0
    0.3300  -26.0480   55.8530 C   0  0  0  0  0  0  0  0  0  0  0  0
    6.3810  -27.7730   65.8700 C   0  0  0  0  0  0  0  0  0  0  0  0
    7.3580  -27.4910   67.0170 C   0  0  0  0  0  0  0  0  0  0  0  0
    7.9800  -28.7190   67.7370 C   0  0  0  0  0  0  0  0  0  0  0  0
    6.8520  -28.6160   68.7810 C   0  0  0  0  0  0  0  0  0  0  0  0
    6.6910  -27.1390   68.3740 C   0  0  0  0  0  0  0  0  0  0  0  0
  1  2  1  0
  1  6  2  0
  2  3  2  0
  3  4  1  0
  4 14  1  0
  5  4  2  0
  5  7  1  0
  6  5  1  0
  7  8  1  6
  7 17  1  0
  7 12  1  0
  8  9  1  0
  9 10  1  0
 10 11  1  0
 12 13  1  0
 12 11  1  1
 13 14  1  6
 13 15  1  0
 15 29  1  0
 16 15  1  0
 17 16  1  0
 18  1  1  0
 20 18  1  0
 20 19  2  0
 21 20  1  0
 22 21  1  0
 23 22  1  0
 23 24  2  0
 25 24  1  0
 26 25  2  0
 27 28  2  0
 27 26  1  0
 28 23  1  0
 29 30  1  0
 30 31  1  0
 30 33  1  0
 31 32  1  0
 33 32  1  0
M  END
$$$$
