lig_013
     RDKit          3D

 26 29  0  0  1  0  0  0  0  0999 V2000
    9.6230    3.8710  -13.6170 N   0  0  0  0  0  0  0  0  0  0  0  0
   10.2390    5.0960  -13.2220 C   0  0  0  0  0  0  0  0  0  0  0  0
   11.5350    5.4620  -13.6530 C   0  0  0  0  0  0  0  0  0  0  0  0
   12.1430    6.6660  -13.2800 C   0  0  0  0  0  0  0  0  0  0  0  0
   11.4710    7.5570  -12.4610 C   0  0  0  0  0  0  0  0  0  0  0  0
   10.1920    7.2380  -12.0230 C   0  0  0  0  0  0  0  0  0  0  0  0
    9.5750    6.0270  -12.3980 C   0  0  0  0  0  0  0  0  0  0  0  0
    7.9510    5.7640  -11.7290 S   0  0  0  0  0  0  0  0  0  0  0  0
    7.4020    4.3280  -12.6200 C   0  0  0  0  0  0  0  0  0  0  0  0
    6.0440    3.9960  -12.4510 C   0  0  0  0  0  0  0  0  0  0  0  0
    5.4940    2.8800  -13.0700 C   0  0  0  0  0  0  0  0  0  0  0  0
    6.3000    2.0780  -13.8650 C   0  0  0  0  0  0  0  0  0  0  0  0
    7.6520    2.4140  -14.0410 C   0  0  0  0  0  0  0  0  0  0  0  0
    8.2490    3.5380  -13.4220 C   0  0  0  0  0  0  0  0  0  0  0  0
    5.6240    0.6220  -14.6970 S   0  0  0  0  0  0  0  0  0  0  0  0
    6.7080   -0.6020  -13.9180 C   0  0  0  0  0  0  0  0  0  0  0  0
    4.0990    0.3800  -14.0920 O   0  0  0  0  0  0  0  0  0  0  0  0
   10.5110    2.8180  -14.1640 C   0  0  0  0  0  0  0  0  0  0  0  0
   10.9750    3.1460  -15.5930 C   0  0  0  0  0  0  0  0  0  0  0  0
    8.8720    2.5850  -17.6550 C   0  0  0  0  0  0  0  0  0  0  0  0
   10.2650    2.1580  -17.7920 N   0  0  0  0  0  0  0  0  0  0  0  0
   10.3840    1.0250  -18.7280 C   0  0  0  0  0  0  0  0  0  0  0  0
   10.7890   -0.3100  -18.0920 C   0  0  0  0  0  0  0  0  0  0  0  0
   10.1060   -0.5040  -16.7470 C   0  0  0  0  0  0  0  0  0  0  0  0
   10.4140    0.6540  -15.7940 C   0  0  0  0  0  0  0  0  0  0  0  0
   10.9610    1.9050  -16.5150 C   0  0  2  0  0  0  0  0  0  0  0  0
  1 14  1  0
  1  2  1  0
  2  7  1  0
  3  4  1  0
  3  2  2  0
  4  5  2  0
  5  6  1  0
  7  6  2  0
  7  8  1  0
  9 10  1  0
  9  8  1  0
 11 10  2  0
 12 11  1  0
 13 12  2  0
 13 14  1  0
 14  9  2  0
 15 17  2  0
 15 16  1  1
 15 12  1  0
 18  1  1  0
 19 18  1  0
 21 20  1  0
 21 26  1  0
 22 23  1  0
 22 21  1  0
 23 24  1  0
 24 25  1  0
 26 25  1  0
 26 19  1  1
M  END
$$$$
