lig_020
     RDKit          3D

 36 41  0  0  1  0  0  0  0  0999 V2000
  190.6260  178.6600  177.2150 C   0  0  0  0  0  0  0  0  0  0  0  0
  190.8200  177.5490  176.1740 C   0  0  1  0  0  0  0  0  0  0  0  0
  192.2870  177.0820  176.0720 C   0  0  2  0  0  0  0  0  0  0  0  0
  192.4480  176.2940  174.7480 C   0  0  0  0  0  0  0  0  0  0  0  0
  191.2940  175.3800  174.3910 C   0  0  0  0  0  0  0  0  0  0  0  0
  191.4510  174.5290  173.2830 C   0  0  0  0  0  0  0  0  0  0  0  0
  190.4360  173.6530  172.9060 C   0  0  0  0  0  0  0  0  0  0  0  0
  189.2450  173.6220  173.6320 C   0  0  0  0  0  0  0  0  0  0  0  0
  189.0860  174.4620  174.7450 C   0  0  0  0  0  0  0  0  0  0  0  0
  190.0900  175.3700  175.1300 C   0  0  0  0  0  0  0  0  0  0  0  0
  189.9300  176.2830  176.3690 C   0  0  2  0  0  0  0  0  0  0  0  0
  188.4580  176.7030  176.5860 C   0  0  0  0  0  0  0  0  0  0  0  0
  190.4160  175.4990  177.6150 C   0  0  0  0  0  0  0  0  0  0  0  0
  191.9110  175.1590  177.5670 C   0  0  0  0  0  0  0  0  0  0  0  0
  192.7810  176.2880  177.2200 N   0  0  0  0  0  0  0  0  0  0  0  0
  188.1340  172.6930  173.2820 C   0  0  0  0  0  0  0  0  0  0  0  0
  187.0720  172.7380  173.8930 O   0  0  0  0  0  0  0  0  0  0  0  0
  188.3610  171.8370  172.2230 N   0  0  0  0  0  0  0  0  0  0  0  0
  187.3240  170.9370  171.7540 C   0  0  0  0  0  0  0  0  0  0  0  0
  187.6170  169.4770  172.1130 C   0  0  0  0  0  0  0  0  0  0  0  0
  186.5440  168.8920  172.9860 C   0  0  0  0  0  0  0  0  0  0  0  0
  186.3240  169.3470  174.2850 C   0  0  0  0  0  0  0  0  0  0  0  0
  185.3020  168.7850  175.0500 C   0  0  0  0  0  0  0  0  0  0  0  0
  184.5050  167.7800  174.5030 C   0  0  0  0  0  0  0  0  0  0  0  0
  184.7130  167.3270  173.2400 N   0  0  0  0  0  0  0  0  0  0  0  0
  185.7100  167.8840  172.5170 C   0  0  0  0  0  0  0  0  0  0  0  0
  183.4010  167.1340  175.2440 C   0  0  0  0  0  0  0  0  0  0  0  0
  183.3710  165.7360  175.4110 C   0  0  0  0  0  0  0  0  0  0  0  0
  182.3410  165.1020  176.1140 C   0  0  0  0  0  0  0  0  0  0  0  0
  181.3090  165.8560  176.6650 C   0  0  0  0  0  0  0  0  0  0  0  0
  181.3060  167.2390  176.5090 C   0  0  0  0  0  0  0  0  0  0  0  0
  182.3390  167.8690  175.8050 C   0  0  0  0  0  0  0  0  0  0  0  0
  193.1730  177.0900  178.3800 C   0  0  0  0  0  0  0  0  0  0  0  0
  194.1960  178.1050  177.9460 C   0  0  0  0  0  0  0  0  0  0  0  0
  193.9920  179.5720  178.2360 C   0  0  0  0  0  0  0  0  0  0  0  0
  195.0580  178.8050  178.9680 C   0  0  0  0  0  0  0  0  0  0  0  0
  2 11  1  0
  2  1  1  1
  3  4  1  6
  3  2  1  0
  3 15  1  0
  5  4  1  0
  5 10  2  0
  6  5  1  0
  7  6  2  0
  7  8  1  0
  8  9  2  0
  9 10  1  0
 10 11  1  0
 11 12  1  1
 11 13  1  0
 14 13  1  0
 15 14  1  0
 15 33  1  0
 16  8  1  0
 16 17  2  0
 18 16  1  0
 19 20  1  0
 19 18  1  0
 20 21  1  0
 21 22  1  0
 22 23  2  0
 24 23  1  0
 24 27  1  0
 25 24  2  0
 26 21  2  0
 26 25  1  0
 27 28  2  0
 27 32  1  0
 28 29  1  0
 29 30  2  0
 31 30  1  0
 32 31  2  0
 34 35  1  0
 34 33  1  0
 34 36  1  0
 35 36  1  0
M  END
$$$$
