lig_028
     RDKit          3D

 22 24  0  0  0  0  0  0  0  0999 V2000
  -13.3150  -14.6280   38.9350 C   0  0  0  0  0  0  0  0  0  0  0  0
  -13.4190  -15.3560   37.5820 C   0  0  0  0  0  0  0  0  0  0  0  0
  -12.4300  -16.2250   37.0920 C   0  0  0  0  0  0  0  0  0  0  0  0
  -12.5810  -16.8670   35.8590 C   0  0  0  0  0  0  0  0  0  0  0  0
  -13.7280  -16.6630   35.0960 C   0  0  0  0  0  0  0  0  0  0  0  0
  -14.7300  -15.8210   35.5670 C   0  0  0  0  0  0  0  0  0  0  0  0
  -14.5790  -15.1790   36.7980 C   0  0  0  0  0  0  0  0  0  0  0  0
  -12.4860  -15.4550   39.9390 C   0  0  0  0  0  0  0  0  0  0  0  0
  -13.1000  -16.2770   40.9000 C   0  0  0  0  0  0  0  0  0  0  0  0
  -12.3380  -17.0090   41.8140 C   0  0  0  0  0  0  0  0  0  0  0  0
  -10.9480  -16.9320   41.7880 C   0  0  0  0  0  0  0  0  0  0  0  0
  -10.3190  -16.1200   40.8490 C   0  0  0  0  0  0  0  0  0  0  0  0
  -11.0780  -15.3860   39.9350 C   0  0  0  0  0  0  0  0  0  0  0  0
  -14.6540  -14.4840   39.4470 O   0  0  0  0  0  0  0  0  0  0  0  0
  -12.7110  -13.1930   38.9020 C   0  0  0  0  0  0  0  0  0  0  0  0
  -12.0330  -12.8270   37.5680 C   0  0  0  0  0  0  0  0  0  0  0  0
  -10.9440  -11.8370   37.6310 N   0  0  0  0  0  0  0  0  0  0  0  0
   -9.6650  -12.4100   38.0610 C   0  0  0  0  0  0  0  0  0  0  0  0
   -8.5350  -11.3900   37.9080 C   0  0  0  0  0  0  0  0  0  0  0  0
   -8.8450  -10.1020   38.6650 C   0  0  0  0  0  0  0  0  0  0  0  0
  -10.2190   -9.5680   38.2720 C   0  0  0  0  0  0  0  0  0  0  0  0
  -11.2960  -10.6460   38.4130 C   0  0  0  0  0  0  0  0  0  0  0  0
  1 14  1  0
  1  8  1  0
  2  1  1  0
  3  2  2  0
  4  3  1  0
  5  6  1  0
  5  4  2  0
  6  7  2  0
  7  2  1  0
  8  9  2  0
  9 10  1  0
 11 10  2  0
 12 11  1  0
 13  8  1  0
 13 12  2  0
 15  1  1  0
 16 17  1  0
 16 15  1  0
 17 18  1  0
 17 22  1  0
 19 18  1  0
 19 20  1  0
 21 22  1  0
 21 20  1  0
M  END
$$$$
