lig_004
     RDKit          3D

 32 35  0  0  1  0  0  0  0  0999 V2000
  -14.9390  -13.6970   31.9730 O   0  0  0  0  0  0  0  0  0  0  0  0
  -13.7540  -14.0080   31.8400 C   0  0  0  0  0  0  0  0  0  0  0  0
  -12.9900  -14.5160   32.8700 N   0  0  0  0  0  0  0  0  0  0  0  0
  -13.5710  -14.8370   34.1700 C   0  0  0  0  0  0  0  0  0  0  0  0
  -13.7180  -16.3530   34.3640 C   0  0  0  0  0  0  0  0  0  0  0  0
  -12.5090  -16.9360   35.0910 C   0  0  0  0  0  0  0  0  0  0  0  0
  -12.2740  -16.3480   36.4170 N   0  0  0  0  0  0  0  0  0  0  0  0
  -12.8390  -14.9990   36.5770 C   0  0  0  0  0  0  0  0  0  0  0  0
  -12.7400  -14.1920   35.2850 C   0  0  0  0  0  0  0  0  0  0  0  0
  -12.7030  -17.2530   37.4980 C   0  0  0  0  0  0  0  0  0  0  0  0
  -12.0620  -16.9480   38.8350 C   0  0  0  0  0  0  0  0  0  0  0  0
  -12.8410  -16.8430   39.9970 C   0  0  0  0  0  0  0  0  0  0  0  0
  -12.2420  -16.5680   41.2280 C   0  0  0  0  0  0  0  0  0  0  0  0
  -10.8600  -16.3990   41.3150 C   0  0  0  0  0  0  0  0  0  0  0  0
  -10.0870  -16.5050   40.1640 C   0  0  0  0  0  0  0  0  0  0  0  0
  -10.6730  -16.7770   38.9320 C   0  0  0  0  0  0  0  0  0  0  0  0
   -8.7320  -16.3460   40.2020 O   0  0  0  0  0  0  0  0  0  0  0  0
  -13.0340  -13.8210   30.4590 C   0  0  1  0  0  0  0  0  0  0  0  0
  -13.9920  -13.1870   29.4120 C   0  0  2  0  0  0  0  0  0  0  0  0
  -14.7810  -11.9290   29.8080 C   0  0  0  0  0  0  0  0  0  0  0  0
  -15.8630  -11.8610   28.7370 C   0  0  0  0  0  0  0  0  0  0  0  0
  -16.3140  -13.3020   28.6550 C   0  0  0  0  0  0  0  0  0  0  0  0
  -16.9290  -13.5700   27.4890 F   0  0  0  0  0  0  0  0  0  0  0  0
  -17.2010  -13.5510   29.6510 F   0  0  0  0  0  0  0  0  0  0  0  0
  -15.0720  -14.1550   28.8580 C   0  0  0  0  0  0  0  0  0  0  0  0
  -11.6630  -13.1540   30.6420 C   0  0  0  0  0  0  0  0  0  0  0  0
  -11.4900  -11.8340   31.0850 C   0  0  0  0  0  0  0  0  0  0  0  0
  -10.2120  -11.2900   31.2540 C   0  0  0  0  0  0  0  0  0  0  0  0
   -9.0810  -12.0490   30.9690 C   0  0  0  0  0  0  0  0  0  0  0  0
   -9.2240  -13.3490   30.4990 C   0  0  0  0  0  0  0  0  0  0  0  0
  -10.5000  -13.8910   30.3290 C   0  0  0  0  0  0  0  0  0  0  0  0
  -12.7240  -15.1370   29.9510 O   0  0  0  0  0  0  0  0  0  0  0  0
  2  1  2  0
  2  3  1  0
  3  4  1  0
  4  5  1  0
  4  9  1  0
  5  6  1  0
  6  7  1  0
  7  8  1  0
  7 10  1  0
  9  8  1  0
 10 11  1  0
 11 16  1  0
 11 12  2  0
 12 13  1  0
 13 14  2  0
 15 17  1  0
 15 14  1  0
 16 15  2  0
 18 32  1  6
 18 26  1  0
 18  2  1  0
 19 20  1  1
 19 18  1  0
 21 20  1  0
 22 21  1  0
 22 25  1  0
 22 24  1  0
 23 22  1  0
 25 19  1  0
 26 27  2  0
 27 28  1  0
 29 28  2  0
 30 29  1  0
 31 30  2  0
 31 26  1  0
M  END
$$$$
