lig_141
     RDKit          3D

 31 34  0  0  1  0  0  0  0  0999 V2000
    0.9680  -17.0720   14.6520 C   0  0  0  0  0  0  0  0  0  0  0  0
    0.2800  -15.2170   10.8880 C   0  0  1  0  0  0  0  0  0  0  0  0
    1.2370  -16.3470   11.3030 C   0  0  0  0  0  0  0  0  0  0  0  0
    1.9940  -16.0090   12.5840 C   0  0  0  0  0  0  0  0  0  0  0  0
    1.0460  -15.7930   13.7860 C   0  0  1  0  0  0  0  0  0  0  0  0
   -0.3370  -15.2910   13.3390 C   0  0  0  0  0  0  0  0  0  0  0  0
   -0.2510  -14.4210   12.0920 C   0  0  0  0  0  0  0  0  0  0  0  0
    0.0140  -15.2990    8.0780 O   0  0  0  0  0  0  0  0  0  0  0  0
    0.6950  -14.4130    8.5770 C   0  0  0  0  0  0  0  0  0  0  0  0
    0.9290  -14.3170    9.9380 N   0  0  0  0  0  0  0  0  0  0  0  0
    1.3730  -13.3260    7.7970 C   0  0  0  0  0  0  0  0  0  0  0  0
    0.6660  -12.0140    7.9730 C   0  0  0  0  0  0  0  0  0  0  0  0
   -0.6460  -12.2560    8.2350 F   0  0  0  0  0  0  0  0  0  0  0  0
    0.7010  -11.2520    6.8610 F   0  0  0  0  0  0  0  0  0  0  0  0
    1.1410  -11.3010    9.0130 F   0  0  0  0  0  0  0  0  0  0  0  0
    1.9270  -18.2050   14.2390 C   0  0  0  0  0  0  0  0  0  0  0  0
    1.2740  -19.4370   13.7720 N   0  0  0  0  0  0  0  0  0  0  0  0
   -0.1650  -19.4610   14.0920 C   0  0  0  0  0  0  0  0  0  0  0  0
   -1.0410  -20.1860   13.0620 C   0  0  0  0  0  0  0  0  0  0  0  0
   -0.3590  -21.4200   12.4590 C   0  0  0  0  0  0  0  0  0  0  0  0
    1.0410  -21.0580   11.9200 C   0  0  0  0  0  0  0  0  0  0  0  0
    1.5230  -19.6660   12.3480 C   0  0  0  0  0  0  0  0  0  0  0  0
   -0.4060  -22.5930   13.4250 C   0  0  0  0  0  0  0  0  0  0  0  0
    0.7430  -23.1740   13.9890 C   0  0  0  0  0  0  0  0  0  0  0  0
    0.6550  -24.2390   14.9060 C   0  0  0  0  0  0  0  0  0  0  0  0
   -0.5850  -24.7470   15.2850 C   0  0  0  0  0  0  0  0  0  0  0  0
   -1.7060  -24.1680   14.7330 C   0  0  0  0  0  0  0  0  0  0  0  0
   -1.6210  -23.1240   13.8360 C   0  0  0  0  0  0  0  0  0  0  0  0
   -2.8550  -22.7010   13.4350 O   0  0  0  0  0  0  0  0  0  0  0  0
   -3.7100  -23.6010   14.1660 C   0  0  0  0  0  0  0  0  0  0  0  0
   -2.9900  -24.5300   14.9970 O   0  0  0  0  0  0  0  0  0  0  0  0
  2 10  1  6
  2  3  1  0
  2  7  1  0
  3  4  1  0
  4  5  1  0
  5  1  1  6
  6  5  1  0
  7  6  1  0
  8  9  2  0
  9 10  1  0
 11 12  1  0
 11  9  1  0
 12 13  1  0
 12 15  1  0
 14 12  1  0
 16  1  1  0
 17 18  1  0
 17 16  1  0
 19 18  1  0
 20 19  1  0
 20 23  1  0
 21 22  1  0
 21 20  1  0
 22 17  1  0
 23 28  1  0
 23 24  2  0
 24 25  1  0
 25 26  2  0
 27 31  1  0
 27 26  1  0
 28 27  2  0
 29 28  1  0
 29 30  1  0
 30 31  1  0
M  END
$$$$
