lig_032
     RDKit          3D

 19 21  0  0  1  0  0  0  0  0999 V2000
    5.0620  -28.4850   64.1770 N   0  0  0  0  0  0  0  0  0  0  0  0
    4.7090  -27.0770   64.3070 C   0  0  0  0  0  0  0  0  0  0  0  0
    5.6490  -26.1170   63.5600 C   0  0  0  0  0  0  0  0  0  0  0  0
    7.1290  -26.5800   63.4780 C   0  0  2  0  0  0  0  0  0  0  0  0
    8.0620  -25.3540   63.6180 C   0  0  0  0  0  0  0  0  0  0  0  0
    7.3430  -27.2790   62.1100 C   0  0  0  0  0  0  0  0  0  0  0  0
    7.5670  -26.5320   60.9370 C   0  0  0  0  0  0  0  0  0  0  0  0
    7.7450  -27.1600   59.7070 C   0  0  0  0  0  0  0  0  0  0  0  0
    7.7000  -28.5420   59.5980 C   0  0  0  0  0  0  0  0  0  0  0  0
    7.4590  -29.3030   60.7400 C   0  0  0  0  0  0  0  0  0  0  0  0
    7.2660  -28.6870   61.9900 C   0  0  0  0  0  0  0  0  0  0  0  0
    7.0040  -29.5760   63.1860 C   0  0  0  0  0  0  0  0  0  0  0  0
    6.4870  -28.8010   64.4180 C   0  0  1  0  0  0  0  0  0  0  0  0
    7.4300  -27.5930   64.6180 C   0  0  2  0  0  0  0  0  0  0  0  0
    7.3770  -27.0300   66.0460 C   0  0  0  0  0  0  0  0  0  0  0  0
    7.9610  -26.3700   58.6160 O   0  0  0  0  0  0  0  0  0  0  0  0
    4.1680  -29.3870   64.9170 C   0  0  0  0  0  0  0  0  0  0  0  0
    4.0640  -28.8760   67.4130 C   0  0  0  0  0  0  0  0  0  0  0  0
    3.3850  -28.7240   66.0590 C   0  0  0  0  0  0  0  0  0  0  0  0
  1  2  1  0
  1 13  1  0
  1 17  1  0
  3  2  1  0
  4  3  1  0
  4  5  1  1
  4 14  1  0
  6  4  1  0
  7  6  1  0
  8  7  2  0
  9  8  1  0
  9 10  2  0
 10 11  1  0
 11  6  2  0
 11 12  1  0
 13 12  1  6
 13 14  1  0
 14 15  1  1
 16  8  1  0
 17 19  1  0
 19 18  1  0
M  END
$$$$
