lig_011
     RDKit          3D

 31 34  0  0  1  0  0  0  0  0999 V2000
  184.8500  170.2470  174.9300 N   0  0  0  0  0  0  0  0  0  0  0  0
  184.2070  170.0550  173.6310 C   0  0  2  0  0  0  0  0  0  0  0  0
  183.9710  168.5460  173.6990 C   0  0  0  0  0  0  0  0  0  0  0  0
  185.1600  168.0030  174.4950 C   0  0  0  0  0  0  0  0  0  0  0  0
  185.9240  169.2550  174.9370 C   0  0  1  0  0  0  0  0  0  0  0  0
  187.0470  169.6110  173.9510 C   0  0  0  0  0  0  0  0  0  0  0  0
  186.5650  169.9190  172.5060 C   0  0  2  0  0  0  0  0  0  0  0  0
  185.1220  170.4880  172.4690 C   0  0  0  0  0  0  0  0  0  0  0  0
  186.9170  168.7930  171.5280 C   0  0  0  0  0  0  0  0  0  0  0  0
  187.7710  167.7250  171.8310 C   0  0  0  0  0  0  0  0  0  0  0  0
  188.0580  166.7340  170.8850 C   0  0  0  0  0  0  0  0  0  0  0  0
  187.4780  166.7800  169.6200 C   0  0  0  0  0  0  0  0  0  0  0  0
  186.5910  167.8090  169.3010 C   0  0  0  0  0  0  0  0  0  0  0  0
  186.3210  168.8090  170.2480 C   0  0  0  0  0  0  0  0  0  0  0  0
  185.9760  167.8170  167.9470 C   0  0  0  0  0  0  0  0  0  0  0  0
  185.0940  168.8220  167.6610 N   0  0  0  0  0  0  0  0  0  0  0  0
  186.2130  166.9410  167.1240 O   0  0  0  0  0  0  0  0  0  0  0  0
  185.2050  171.6060  175.3290 C   0  0  0  0  0  0  0  0  0  0  0  0
  185.1260  171.8930  176.8460 C   0  0  0  0  0  0  0  0  0  0  0  0
  183.8030  172.4280  177.2850 N   0  0  0  0  0  0  0  0  0  0  0  0
  182.2480  174.6410  177.3250 C   0  0  0  0  0  0  0  0  0  0  0  0
  183.8020  174.0030  177.9220 S   0  0  0  0  0  0  0  0  0  0  0  0
  184.8580  174.7610  177.2840 O   0  0  0  0  0  0  0  0  0  0  0  0
  183.7100  173.9170  179.3640 O   0  0  0  0  0  0  0  0  0  0  0  0
  182.8870  171.4410  177.9150 C   0  0  0  0  0  0  0  0  0  0  0  0
  181.9310  170.8080  176.8880 C   0  0  0  0  0  0  0  0  0  0  0  0
  181.9930  169.2750  176.9950 C   0  0  0  0  0  0  0  0  0  0  0  0
  181.0530  168.5980  176.0010 C   0  0  0  0  0  0  0  0  0  0  0  0
  179.6200  169.0970  176.1530 C   0  0  0  0  0  0  0  0  0  0  0  0
  179.5440  170.6170  176.0530 C   0  0  0  0  0  0  0  0  0  0  0  0
  180.4820  171.2950  177.0500 C   0  0  0  0  0  0  0  0  0  0  0  0
  1  5  1  0
  1 18  1  0
  2  8  1  6
  2  3  1  0
  2  1  1  0
  3  4  1  0
  5  4  1  6
  5  6  1  0
  7  9  1  6
  7  6  1  0
  8  7  1  0
  9 10  2  0
 11 10  1  0
 12 11  2  0
 13 12  1  0
 13 14  2  0
 14  9  1  0
 15 13  1  0
 16 15  1  0
 17 15  2  0
 18 19  1  0
 19 20  1  0
 20 25  1  0
 20 22  1  0
 21 22  1  0
 22 24  2  0
 23 22  2  0
 26 27  1  0
 26 31  1  0
 26 25  1  0
 28 29  1  0
 28 27  1  0
 30 29  1  0
 30 31  1  0
M  END
$$$$
