lig_168
     RDKit          3D

 29 33  0  0  1  0  0  0  0  0999 V2000
   -0.7080   13.7730   15.4240 N   0  0  0  0  0  0  0  0  0  0  0  0
    0.4990   13.1290   15.3510 C   0  0  0  0  0  0  0  0  0  0  0  0
    0.3640   11.8170   15.3930 N   0  0  0  0  0  0  0  0  0  0  0  0
   -0.9890   11.6010   15.5190 C   0  0  0  0  0  0  0  0  0  0  0  0
   -1.7550   10.4220   15.6290 C   0  0  0  0  0  0  0  0  0  0  0  0
   -3.0970   10.5520   15.7830 N   0  0  0  0  0  0  0  0  0  0  0  0
   -3.6180   11.7930   15.8060 C   0  0  0  0  0  0  0  0  0  0  0  0
   -5.3140   11.8770   16.0240 Cl  0  0  0  0  0  0  0  0  0  0  0  0
   -2.9950   12.9880   15.7130 N   0  0  0  0  0  0  0  0  0  0  0  0
   -1.6730   12.8050   15.5580 C   0  0  0  0  0  0  0  0  0  0  0  0
    0.3020   16.3720   17.1020 C   0  0  1  0  0  0  0  0  0  0  0  0
    0.8660   17.0790   15.8760 C   0  0  0  0  0  0  0  0  0  0  0  0
    0.1880   16.2090   14.4230 S   0  0  0  0  0  0  0  0  0  0  0  0
   -1.0040   15.1970   15.3660 C   0  0  2  0  0  0  0  0  0  0  0  0
   -1.1060   15.8960   16.7390 C   0  0  1  0  0  0  0  0  0  0  0  0
    1.1230   15.2590   17.4630 O   0  0  0  0  0  0  0  0  0  0  0  0
   -1.6130   15.0840   17.8020 O   0  0  0  0  0  0  0  0  0  0  0  0
   -1.1560    9.1610   15.5730 N   0  0  0  0  0  0  0  0  0  0  0  0
   -0.9300    8.5220   16.8640 C   0  0  0  0  0  0  0  0  0  0  0  0
   -1.7830    7.2710   17.0180 C   0  0  0  0  0  0  0  0  0  0  0  0
   -3.1160    7.2980   16.5580 C   0  0  0  0  0  0  0  0  0  0  0  0
   -3.9440    6.1880   16.6810 C   0  0  0  0  0  0  0  0  0  0  0  0
   -3.4640    5.0340   17.2860 C   0  0  0  0  0  0  0  0  0  0  0  0
   -2.1590    4.9760   17.7910 C   0  0  0  0  0  0  0  0  0  0  0  0
   -1.7120    3.8010   18.4200 C   0  0  0  0  0  0  0  0  0  0  0  0
   -0.4280    3.7140   18.9530 C   0  0  0  0  0  0  0  0  0  0  0  0
    0.4240    4.8050   18.8690 C   0  0  0  0  0  0  0  0  0  0  0  0
   -0.0040    5.9800   18.2430 C   0  0  0  0  0  0  0  0  0  0  0  0
   -1.2980    6.1010   17.6780 C   0  0  0  0  0  0  0  0  0  0  0  0
  1 10  1  0
  2  3  2  0
  2  1  1  0
  3  4  1  0
  4 10  1  0
  4  5  2  0
  5  6  1  0
  6  7  2  0
  7  8  1  0
  9  7  1  0
 10  9  2  0
 11 16  1  6
 12 11  1  0
 13 14  1  0
 13 12  1  0
 14  1  1  1
 14 15  1  0
 15 11  1  0
 15 17  1  1
 18  5  1  0
 18 19  1  0
 19 20  1  0
 20 29  1  0
 21 22  1  0
 21 20  2  0
 22 23  2  0
 23 24  1  0
 24 25  2  0
 25 26  1  0
 27 26  2  0
 28 27  1  0
 29 24  1  0
 29 28  2  0
M  END
$$$$
