lig_228
     RDKit          3D

 24 27  0  0  0  0  0  0  0  0999 V2000
   -0.7990    8.1990   16.9270 C   0  0  0  0  0  0  0  0  0  0  0  0
    0.4580    8.0270   17.4070 C   0  0  0  0  0  0  0  0  0  0  0  0
    0.9470    6.9140   18.0710 N   0  0  0  0  0  0  0  0  0  0  0  0
    0.1320    5.9070   18.2300 C   0  0  0  0  0  0  0  0  0  0  0  0
    0.5200    4.7540   18.8630 N   0  0  0  0  0  0  0  0  0  0  0  0
   -1.1860    6.0090   17.7570 N   0  0  0  0  0  0  0  0  0  0  0  0
   -2.1160    5.0500   17.9330 N   0  0  0  0  0  0  0  0  0  0  0  0
   -3.1920    5.6060   17.3400 C   0  0  0  0  0  0  0  0  0  0  0  0
   -2.9540    6.8770   16.8270 N   0  0  0  0  0  0  0  0  0  0  0  0
   -1.6910    7.1040   17.1200 C   0  0  0  0  0  0  0  0  0  0  0  0
   -2.4300   12.8020   17.1470 C   0  0  0  0  0  0  0  0  0  0  0  0
   -1.9970   11.6950   16.3090 N   0  0  0  0  0  0  0  0  0  0  0  0
   -1.6080   10.5130   16.9240 C   0  0  0  0  0  0  0  0  0  0  0  0
   -1.1880    9.4360   16.2290 C   0  0  0  0  0  0  0  0  0  0  0  0
   -1.1890    9.5440   14.7750 C   0  0  0  0  0  0  0  0  0  0  0  0
   -1.5590   10.6670   14.1470 C   0  0  0  0  0  0  0  0  0  0  0  0
   -1.9940   11.8530   14.9250 C   0  0  0  0  0  0  0  0  0  0  0  0
   -2.3230   12.8730   14.3270 O   0  0  0  0  0  0  0  0  0  0  0  0
   -4.5110    4.9630   17.2370 C   0  0  0  0  0  0  0  0  0  0  0  0
   -5.6090    5.5030   17.9040 C   0  0  0  0  0  0  0  0  0  0  0  0
   -6.8460    4.8730   17.7870 C   0  0  0  0  0  0  0  0  0  0  0  0
   -6.9540    3.7240   17.0130 C   0  0  0  0  0  0  0  0  0  0  0  0
   -5.8150    3.2500   16.3830 C   0  0  0  0  0  0  0  0  0  0  0  0
   -4.6040    3.8380   16.4770 N   0  0  0  0  0  0  0  0  0  0  0  0
  1 10  1  0
  1  2  2  0
  2  3  1  0
  3  4  2  0
  4  5  1  0
  6  7  1  0
  6  4  1  0
  8  7  2  0
  9 10  2  0
  9  8  1  0
 10  6  1  0
 12 13  1  0
 12 11  1  0
 14 13  2  0
 14  1  1  0
 15 14  1  0
 16 15  2  0
 16 17  1  0
 17 12  1  0
 18 17  2  0
 19  8  1  0
 19 20  2  0
 21 20  1  0
 22 21  2  0
 23 24  2  0
 23 22  1  0
 24 19  1  0
M  END
$$$$
