lig_020
     RDKit          3D

 19 20  0  0  1  0  0  0  0  0999 V2000
   11.5750    7.8900   -7.4730 C   0  0  1  0  0  0  0  0  0  0  0  0
   11.2240    9.3900   -7.2550 C   0  0  0  0  0  0  0  0  0  0  0  0
   10.8010    9.7970   -5.8370 C   0  0  0  0  0  0  0  0  0  0  0  0
   11.3540    8.9130   -4.7540 C   0  0  0  0  0  0  0  0  0  0  0  0
   11.3580    7.5260   -5.0010 C   0  0  0  0  0  0  0  0  0  0  0  0
   11.7350    6.6270   -3.9950 C   0  0  0  0  0  0  0  0  0  0  0  0
   12.1200    7.0990   -2.7400 C   0  0  0  0  0  0  0  0  0  0  0  0
   12.1210    8.4680   -2.4930 C   0  0  0  0  0  0  0  0  0  0  0  0
   11.7400    9.3730   -3.4890 C   0  0  0  0  0  0  0  0  0  0  0  0
   10.9190    7.0330   -6.3620 C   0  0  0  0  0  0  0  0  0  0  0  0
   12.5020    8.9440   -1.2680 O   0  0  0  0  0  0  0  0  0  0  0  0
   11.7430   10.7050   -3.1780 O   0  0  0  0  0  0  0  0  0  0  0  0
   11.2550    7.4830   -8.8760 N   0  0  0  0  0  0  0  0  0  0  0  0
    9.8200    7.1490   -9.0290 C   0  0  0  0  0  0  0  0  0  0  0  0
    9.1980    4.7070   -8.8840 C   0  0  0  0  0  0  0  0  0  0  0  0
    9.5460    5.8590   -9.8160 C   0  0  0  0  0  0  0  0  0  0  0  0
   11.7410    8.4180   -9.9070 C   0  0  0  0  0  0  0  0  0  0  0  0
   12.7740    7.8540  -10.8940 C   0  0  0  0  0  0  0  0  0  0  0  0
   12.0990    7.3170  -12.1470 C   0  0  0  0  0  0  0  0  0  0  0  0
  1 13  1  6
  1  2  1  0
  1 10  1  0
  2  3  1  0
  3  4  1  0
  4  9  1  0
  5  4  2  0
  5  6  1  0
  6  7  2  0
  7  8  1  0
  8 11  1  0
  9 12  1  0
  9  8  2  0
 10  5  1  0
 14 13  1  0
 16 14  1  0
 16 15  1  0
 17 13  1  0
 18 17  1  0
 19 18  1  0
M  END
$$$$
