lig_028
     RDKit          3D

 30 32  0  0  0  0  0  0  0  0999 V2000
  179.3020  166.5170  137.9700 O   0  0  0  0  0  0  0  0  0  0  0  0
  179.1710  167.8310  138.3200 C   0  0  0  0  0  0  0  0  0  0  0  0
  178.5670  168.6350  137.3530 C   0  0  0  0  0  0  0  0  0  0  0  0
  178.3700  170.0010  137.5830 C   0  0  0  0  0  0  0  0  0  0  0  0
  178.7730  170.5950  138.7870 C   0  0  0  0  0  0  0  0  0  0  0  0
  179.3790  169.7740  139.7510 C   0  0  0  0  0  0  0  0  0  0  0  0
  179.5760  168.4050  139.5230 C   0  0  0  0  0  0  0  0  0  0  0  0
  178.5670  172.0320  139.0320 C   0  0  0  0  0  0  0  0  0  0  0  0
  179.3760  172.7320  139.9450 C   0  0  0  0  0  0  0  0  0  0  0  0
  179.1870  174.0980  140.1830 C   0  0  0  0  0  0  0  0  0  0  0  0
  178.1730  174.7810  139.5020 C   0  0  0  0  0  0  0  0  0  0  0  0
  177.3540  174.1070  138.5880 C   0  0  0  0  0  0  0  0  0  0  0  0
  177.5560  172.7420  138.3600 C   0  0  0  0  0  0  0  0  0  0  0  0
  177.9690  176.2140  139.7460 N   0  0  0  0  0  0  0  0  0  0  0  0
  178.6120  177.0150  139.0530 O   0  0  0  0  0  0  0  0  0  0  0  0
  177.1640  176.5380  140.6310 O   0  0  0  0  0  0  0  0  0  0  0  0
  179.9830  165.6610  138.8850 C   0  0  0  0  0  0  0  0  0  0  0  0
  179.3710  164.2610  138.8150 C   0  0  0  0  0  0  0  0  0  0  0  0
  180.3320  163.1910  139.3520 C   0  0  0  0  0  0  0  0  0  0  0  0
  182.4250  161.6040  134.5280 C   0  0  0  0  0  0  0  0  0  0  0  0
  182.1210  162.2830  133.5540 O   0  0  0  0  0  0  0  0  0  0  0  0
  181.8680  161.7620  135.7770 N   0  0  0  0  0  0  0  0  0  0  0  0
  182.2520  160.9620  136.9390 C   0  0  0  0  0  0  0  0  0  0  0  0
  181.9380  161.6920  138.2580 C   0  0  0  0  0  0  0  0  0  0  0  0
  180.5160  162.0640  138.4220 N   0  0  0  0  0  0  0  0  0  0  0  0
  179.8570  162.3240  137.1220 C   0  0  0  0  0  0  0  0  0  0  0  0
  180.8000  162.7360  135.9780 C   0  0  0  0  0  0  0  0  0  0  0  0
  183.3500  160.6060  134.4990 O   0  0  0  0  0  0  0  0  0  0  0  0
  185.6200  161.1070  133.8210 C   0  0  0  0  0  0  0  0  0  0  0  0
  184.2520  160.6160  133.3840 C   0  0  0  0  0  0  0  0  0  0  0  0
  1  2  1  0
  1 17  1  0
  2  7  2  0
  3  4  2  0
  3  2  1  0
  4  5  1  0
  5  8  1  0
  5  6  2  0
  7  6  1  0
  8  9  1  0
  9 10  2  0
 11 14  1  0
 11 10  1  0
 12 11  2  0
 13 12  1  0
 13  8  2  0
 14 16  1  0
 15 14  2  0
 18 17  1  0
 18 19  1  0
 20 22  1  0
 21 20  2  0
 22 27  1  0
 22 23  1  0
 23 24  1  0
 24 25  1  0
 25 19  1  0
 26 25  1  0
 27 26  1  0
 28 20  1  0
 30 29  1  0
 30 28  1  0
M  CHG  2  14   1  16  -1
M  END
$$$$
