lig_024
     RDKit          3D

 29 32  0  0  0  0  0  0  0  0999 V2000
  122.6820  137.6390  108.5690 O   0  0  0  0  0  0  0  0  0  0  0  0
  123.6050  137.8270  109.3710 C   0  0  0  0  0  0  0  0  0  0  0  0
  124.5370  136.8420  109.6440 N   0  0  0  0  0  0  0  0  0  0  0  0
  123.8230  139.2460  109.9280 C   0  0  0  0  0  0  0  0  0  0  0  0
  122.9430  139.7200  111.0870 C   0  0  0  0  0  0  0  0  0  0  0  0
  123.4540  141.0380  111.6740 C   0  0  0  0  0  0  0  0  0  0  0  0
  123.9590  142.0250  110.6190 C   0  0  0  0  0  0  0  0  0  0  0  0
  123.4790  141.6810  109.2140 C   0  0  0  0  0  0  0  0  0  0  0  0
  123.9370  140.2830  108.7970 C   0  0  0  0  0  0  0  0  0  0  0  0
  124.8740  136.4000  110.9550 C   0  0  0  0  0  0  0  0  0  0  0  0
  126.1480  136.5830  111.4860 C   0  0  0  0  0  0  0  0  0  0  0  0
  126.4210  136.1540  112.7850 C   0  0  0  0  0  0  0  0  0  0  0  0
  125.4140  135.5630  113.5330 C   0  0  0  0  0  0  0  0  0  0  0  0
  124.1690  135.4380  112.9490 C   0  0  0  0  0  0  0  0  0  0  0  0
  123.8840  135.8500  111.6940 N   0  0  0  0  0  0  0  0  0  0  0  0
  124.8390  135.8920  108.5600 C   0  0  0  0  0  0  0  0  0  0  0  0
  126.0550  136.3090  107.7040 C   0  0  0  0  0  0  0  0  0  0  0  0
  125.7320  137.3020  106.6570 N   0  0  0  0  0  0  0  0  0  0  0  0
  126.5900  138.5010  106.8190 C   0  0  0  0  0  0  0  0  0  0  0  0
  126.3360  139.5710  105.7340 C   0  0  0  0  0  0  0  0  0  0  0  0
  126.5460  139.0010  104.3880 N   0  0  0  0  0  0  0  0  0  0  0  0
  125.7260  137.7850  104.1690 C   0  0  0  0  0  0  0  0  0  0  0  0
  125.9610  136.7510  105.2980 C   0  0  0  0  0  0  0  0  0  0  0  0
  126.5520  139.8800  103.2920 C   0  0  0  0  0  0  0  0  0  0  0  0
  126.9530  141.2140  103.4800 C   0  0  0  0  0  0  0  0  0  0  0  0
  126.9710  142.1350  102.4270 C   0  0  0  0  0  0  0  0  0  0  0  0
  126.5780  141.7410  101.1540 C   0  0  0  0  0  0  0  0  0  0  0  0
  126.1620  140.4310  100.9400 C   0  0  0  0  0  0  0  0  0  0  0  0
  126.1460  139.5140  102.0000 C   0  0  0  0  0  0  0  0  0  0  0  0
  1  2  2  0
  2  3  1  0
  2  4  1  0
  3 10  1  0
  4  5  1  0
  5  6  1  0
  7  6  1  0
  8  7  1  0
  9  8  1  0
  9  4  1  0
 10 11  2  0
 10 15  1  0
 11 12  1  0
 12 13  2  0
 14 13  1  0
 15 14  2  0
 16  3  1  0
 17 16  1  0
 18 19  1  0
 18 17  1  0
 20 19  1  0
 21 20  1  0
 22 21  1  0
 22 23  1  0
 23 18  1  0
 24 25  2  0
 24 21  1  0
 26 25  1  0
 27 26  2  0
 28 27  1  0
 28 29  2  0
 29 24  1  0
M  END
$$$$
