lig_022
     RDKit          3D

 24 27  0  0  1  0  0  0  0  0999 V2000
  124.3230  141.0670  106.9510 C   0  0  2  0  0  0  0  0  0  0  0  0
  123.8380  141.4170  105.5660 C   0  0  0  0  0  0  0  0  0  0  0  0
  124.4160  140.9340  104.4530 C   0  0  0  0  0  0  0  0  0  0  0  0
  124.0950  141.4840  103.1180 C   0  0  0  0  0  0  0  0  0  0  0  0
  122.8800  141.9680  102.6300 C   0  0  0  0  0  0  0  0  0  0  0  0
  122.8020  142.4850  101.3290 C   0  0  0  0  0  0  0  0  0  0  0  0
  123.9220  142.5460  100.4800 C   0  0  0  0  0  0  0  0  0  0  0  0
  125.1290  142.0580  100.9890 C   0  0  0  0  0  0  0  0  0  0  0  0
  126.3970  141.9610  100.4550 N   0  0  0  0  0  0  0  0  0  0  0  0
  127.2630  141.3930  101.3680 C   0  0  0  0  0  0  0  0  0  0  0  0
  126.5450  141.1180  102.5070 C   0  0  0  0  0  0  0  0  0  0  0  0
  125.2130  141.5410  102.2690 C   0  0  0  0  0  0  0  0  0  0  0  0
  126.8860  140.4940  103.8270 C   0  0  0  0  0  0  0  0  0  0  0  0
  125.5750  139.9100  104.4720 C   0  0  1  0  0  0  0  0  0  0  0  0
  125.8570  139.3070  105.7930 N   0  0  0  0  0  0  0  0  0  0  0  0
  125.0730  138.0830  105.9820 C   0  0  0  0  0  0  0  0  0  0  0  0
  125.6490  140.2550  106.9060 C   0  0  0  0  0  0  0  0  0  0  0  0
  123.0120  140.8360  109.1190 N   0  0  0  0  0  0  0  0  0  0  0  0
  123.2340  140.3860  107.8090 C   0  0  0  0  0  0  0  0  0  0  0  0
  122.5730  139.4440  107.3610 O   0  0  0  0  0  0  0  0  0  0  0  0
  120.6200  140.7850  109.7800 C   0  0  0  0  0  0  0  0  0  0  0  0
  121.9890  140.1300  109.8970 C   0  0  0  0  0  0  0  0  0  0  0  0
  123.8400  141.8040  109.8490 C   0  0  0  0  0  0  0  0  0  0  0  0
  123.9120  141.5060  111.3400 C   0  0  0  0  0  0  0  0  0  0  0  0
  1 19  1  6
  2  1  1  0
  3 14  1  0
  3  2  2  0
  4  3  1  0
  5  4  1  0
  6  5  2  0
  7  8  2  0
  7  6  1  0
  8 12  1  0
  9  8  1  0
  9 10  1  0
 10 11  2  0
 11 13  1  0
 12 11  1  0
 12  4  2  0
 14 13  1  1
 14 15  1  0
 15 16  1  0
 15 17  1  0
 17  1  1  0
 18 23  1  0
 18 22  1  0
 19 18  1  0
 20 19  2  0
 21 22  1  0
 23 24  1  0
M  END
$$$$
