lig_223
     RDKit          3D

 29 33  0  0  1  0  0  0  0  0999 V2000
    1.3850  -19.2510   13.6130 C   0  0  0  0  0  0  0  0  0  0  0  0
    0.9280  -17.8770   13.3440 N   0  0  0  0  0  0  0  0  0  0  0  0
   -0.1270  -17.8890   12.3000 C   0  0  0  0  0  0  0  0  0  0  0  0
   -0.6180  -16.4750   11.9080 C   0  0  0  0  0  0  0  0  0  0  0  0
    0.5270  -15.6600   11.4490 N   0  0  0  0  0  0  0  0  0  0  0  0
    1.5520  -15.5720   12.5130 C   0  0  0  0  0  0  0  0  0  0  0  0
    2.0340  -16.9940   12.8960 C   0  0  0  0  0  0  0  0  0  0  0  0
    0.0870  -14.3880   11.0330 C   0  0  0  0  0  0  0  0  0  0  0  0
   -0.7500  -13.6610   11.8090 N   0  0  0  0  0  0  0  0  0  0  0  0
   -1.1400  -12.4290   11.3810 C   0  0  0  0  0  0  0  0  0  0  0  0
   -0.7390  -11.8530   10.1940 C   0  0  0  0  0  0  0  0  0  0  0  0
    0.1060  -12.6130    9.4280 C   0  0  0  0  0  0  0  0  0  0  0  0
    0.5240  -13.8690    9.8290 C   0  0  0  0  0  0  0  0  0  0  0  0
    1.5160  -14.3800    8.8580 C   0  0  0  0  0  0  0  0  0  0  0  0
    1.2480  -13.4100    7.7080 C   0  0  0  0  0  0  0  0  0  0  0  0
    0.6400  -12.2070    8.2330 O   0  0  0  0  0  0  0  0  0  0  0  0
    1.4220  -20.1230   12.3460 C   0  0  0  0  0  0  0  0  0  0  0  0
   -1.7020  -22.6510   13.6880 C   0  0  1  0  0  0  0  0  0  0  0  0
   -0.8190  -21.6420   14.4390 C   0  0  0  0  0  0  0  0  0  0  0  0
    0.6570  -21.8090   14.0870 C   0  0  0  0  0  0  0  0  0  0  0  0
    0.9300  -21.5670   12.5850 C   0  0  1  0  0  0  0  0  0  0  0  0
   -0.2950  -21.9080   11.7150 C   0  0  0  0  0  0  0  0  0  0  0  0
   -1.1220  -23.0380   12.3160 C   0  0  0  0  0  0  0  0  0  0  0  0
   -3.8160  -23.0880   15.5310 O   0  0  0  0  0  0  0  0  0  0  0  0
   -3.0010  -23.9770   15.3240 C   0  0  0  0  0  0  0  0  0  0  0  0
   -1.9110  -23.8460   14.4960 N   0  0  0  0  0  0  0  0  0  0  0  0
   -3.1810  -25.2990   15.9880 C   0  0  0  0  0  0  0  0  0  0  0  0
   -2.6030  -25.5890   17.3540 C   0  0  0  0  0  0  0  0  0  0  0  0
   -4.0930  -25.5120   17.1750 C   0  0  0  0  0  0  0  0  0  0  0  0
  2  1  1  0
  3  2  1  0
  4  3  1  0
  5  4  1  0
  5  6  1  0
  6  7  1  0
  7  2  1  0
  8  5  1  0
  8  9  2  0
 10  9  1  0
 11 10  2  0
 12 13  2  0
 12 11  1  0
 13  8  1  0
 14 13  1  0
 15 16  1  0
 15 14  1  0
 16 12  1  0
 17  1  1  0
 18 19  1  0
 18 26  1  1
 20 19  1  0
 21 17  1  1
 21 20  1  0
 22 23  1  0
 22 21  1  0
 23 18  1  0
 25 24  2  0
 25 27  1  0
 26 25  1  0
 27 29  1  0
 27 28  1  0
 29 28  1  0
M  END
$$$$
