lig_270
     RDKit          3D

 23 25  0  0  0  0  0  0  0  0999 V2000
    0.3340    1.6330   19.6780 C   0  0  0  0  0  0  0  0  0  0  0  0
   -0.3550    2.7890   19.0160 C   0  0  0  0  0  0  0  0  0  0  0  0
    0.2650    4.0250   18.9520 C   0  0  0  0  0  0  0  0  0  0  0  0
   -0.4140    5.0620   18.3310 C   0  0  0  0  0  0  0  0  0  0  0  0
   -1.6930    4.8380   17.7900 C   0  0  0  0  0  0  0  0  0  0  0  0
   -2.4470    5.8400   17.1450 C   0  0  0  0  0  0  0  0  0  0  0  0
   -3.7190    5.5590   16.6450 C   0  0  0  0  0  0  0  0  0  0  0  0
   -4.1550    4.2560   16.7800 C   0  0  0  0  0  0  0  0  0  0  0  0
   -3.4520    3.2740   17.3940 N   0  0  0  0  0  0  0  0  0  0  0  0
   -2.2450    3.5510   17.8970 C   0  0  0  0  0  0  0  0  0  0  0  0
   -1.5850    2.5600   18.4970 N   0  0  0  0  0  0  0  0  0  0  0  0
   -4.5330    6.6030   15.9800 C   0  0  0  0  0  0  0  0  0  0  0  0
   -5.3590    6.2520   15.1400 O   0  0  0  0  0  0  0  0  0  0  0  0
   -4.2900    7.9180   16.3080 N   0  0  0  0  0  0  0  0  0  0  0  0
   -4.9530    9.0010   15.6110 C   0  0  0  0  0  0  0  0  0  0  0  0
   -4.0820   10.2310   15.5870 C   0  0  0  0  0  0  0  0  0  0  0  0
   -2.7670   10.1690   15.0980 C   0  0  0  0  0  0  0  0  0  0  0  0
   -1.9760   11.3190   15.0560 C   0  0  0  0  0  0  0  0  0  0  0  0
   -2.4980   12.5290   15.4960 C   0  0  0  0  0  0  0  0  0  0  0  0
   -1.7370   13.6300   15.4540 F   0  0  0  0  0  0  0  0  0  0  0  0
   -3.8000   12.6130   15.9750 C   0  0  0  0  0  0  0  0  0  0  0  0
   -4.5920   11.4670   16.0190 C   0  0  0  0  0  0  0  0  0  0  0  0
   -1.8870    7.0940   17.0310 O   0  0  0  0  0  0  0  0  0  0  0  0
  2  1  1  0
  3  2  1  0
  4  3  2  0
  5 10  1  0
  5  4  1  0
  6  5  2  0
  7  8  2  0
  7  6  1  0
  8  9  1  0
  9 10  2  0
 10 11  1  0
 11  2  2  0
 12 14  1  0
 12  7  1  0
 13 12  2  0
 15 14  1  0
 16 15  1  0
 16 22  2  0
 17 16  1  0
 18 17  2  0
 18 19  1  0
 19 21  2  0
 20 19  1  0
 21 22  1  0
 23  6  1  0
M  END
$$$$
