lig_233
     RDKit          3D

 29 32  0  0  1  0  0  0  0  0999 V2000
   -3.5980   10.1810   15.6330 C   0  0  0  0  0  0  0  0  0  0  0  0
   -2.6100    9.2690   15.7600 N   0  0  0  0  0  0  0  0  0  0  0  0
   -1.3920    9.6810   16.1680 C   0  0  0  0  0  0  0  0  0  0  0  0
   -0.9910   10.9470   16.4370 N   0  0  0  0  0  0  0  0  0  0  0  0
   -2.0100   11.8120   16.2900 C   0  0  0  0  0  0  0  0  0  0  0  0
   -3.3060   11.5280   15.8970 C   0  0  0  0  0  0  0  0  0  0  0  0
   -4.0610   12.6790   15.8280 N   0  0  0  0  0  0  0  0  0  0  0  0
   -3.2410   13.6430   16.1920 C   0  0  0  0  0  0  0  0  0  0  0  0
   -1.9900   13.1690   16.4830 N   0  0  0  0  0  0  0  0  0  0  0  0
   -0.8320   13.9260   16.9220 C   0  0  2  0  0  0  0  0  0  0  0  0
   -1.2410   15.2350   17.3680 O   0  0  0  0  0  0  0  0  0  0  0  0
   -0.3300   16.2130   16.8060 C   0  0  1  0  0  0  0  0  0  0  0  0
    0.8320   15.4360   16.1960 C   0  0  2  0  0  0  0  0  0  0  0  0
    0.2080   14.1090   15.8120 C   0  0  1  0  0  0  0  0  0  0  0  0
    1.8350   15.2040   17.2000 O   0  0  0  0  0  0  0  0  0  0  0  0
    1.2050   13.0800   15.7790 O   0  0  0  0  0  0  0  0  0  0  0  0
   -1.1010   17.0630   15.7900 C   0  0  0  0  0  0  0  0  0  0  0  0
   -2.5040   17.0160   16.0380 O   0  0  0  0  0  0  0  0  0  0  0  0
   -4.8510    9.7410   15.2270 N   0  0  0  0  0  0  0  0  0  0  0  0
   -0.4670    8.6630   16.2500 O   0  0  0  0  0  0  0  0  0  0  0  0
   -0.1140    8.3190   17.5900 C   0  0  0  0  0  0  0  0  0  0  0  0
    0.5510    6.9390   17.5910 C   0  0  0  0  0  0  0  0  0  0  0  0
   -0.4120    5.8320   17.9540 C   0  0  0  0  0  0  0  0  0  0  0  0
    0.0090    4.7500   18.7430 C   0  0  0  0  0  0  0  0  0  0  0  0
   -0.8760    3.7170   19.0680 C   0  0  0  0  0  0  0  0  0  0  0  0
   -2.1910    3.7560   18.6060 C   0  0  0  0  0  0  0  0  0  0  0  0
   -2.6070    4.8250   17.8230 C   0  0  0  0  0  0  0  0  0  0  0  0
   -3.8690    4.8630   17.3770 F   0  0  0  0  0  0  0  0  0  0  0  0
   -1.7340    5.8580   17.4920 C   0  0  0  0  0  0  0  0  0  0  0  0
  1  2  1  0
  1  6  2  0
  2  3  2  0
  3 20  1  0
  3  4  1  0
  5  4  2  0
  5  9  1  0
  6  5  1  0
  7  6  1  0
  7  8  2  0
  8  9  1  0
 10  9  1  6
 10 11  1  0
 12 17  1  6
 12 11  1  0
 13 12  1  0
 13 15  1  1
 14 16  1  1
 14 13  1  0
 14 10  1  0
 17 18  1  0
 19  1  1  0
 20 21  1  0
 21 22  1  0
 22 23  1  0
 23 24  2  0
 24 25  1  0
 26 25  2  0
 27 26  1  0
 28 27  1  0
 29 27  2  0
 29 23  1  0
M  END
$$$$
