lig_029
     RDKit          3D

 33 37  0  0  0  0  0  0  0  0999 V2000
   12.1250    6.9910  -12.2170 C   0  0  0  0  0  0  0  0  0  0  0  0
   11.7670    7.7900  -10.9560 C   0  0  0  0  0  0  0  0  0  0  0  0
   10.4720    7.3580  -10.2490 C   0  0  0  0  0  0  0  0  0  0  0  0
   11.2180    6.9860   -6.1740 N   0  0  0  0  0  0  0  0  0  0  0  0
    9.7920    7.2370   -6.5100 C   0  0  0  0  0  0  0  0  0  0  0  0
    9.5340    7.0110   -8.0160 C   0  0  0  0  0  0  0  0  0  0  0  0
   10.3060    7.9210   -8.9010 N   0  0  0  0  0  0  0  0  0  0  0  0
   11.6120    8.2670   -8.2890 C   0  0  0  0  0  0  0  0  0  0  0  0
   12.1590    7.2280   -7.2860 C   0  0  0  0  0  0  0  0  0  0  0  0
   11.9690    8.7970   -4.6920 C   0  0  0  0  0  0  0  0  0  0  0  0
   12.3790    9.2540   -3.4350 C   0  0  0  0  0  0  0  0  0  0  0  0
   12.3190    8.4110   -2.3300 C   0  0  0  0  0  0  0  0  0  0  0  0
   11.8640    7.1060   -2.4870 C   0  0  0  0  0  0  0  0  0  0  0  0
   11.4800    6.6410   -3.7510 C   0  0  0  0  0  0  0  0  0  0  0  0
   11.5290    7.4660   -4.8880 C   0  0  0  0  0  0  0  0  0  0  0  0
   10.9680   10.6480   -5.6790 C   0  0  0  0  0  0  0  0  0  0  0  0
   12.0580    9.7270   -5.7030 O   0  0  0  0  0  0  0  0  0  0  0  0
   10.9420    6.7850  -13.1640 C   0  0  0  0  0  0  0  0  0  0  0  0
   10.8320    5.3490  -13.6840 C   0  0  0  0  0  0  0  0  0  0  0  0
    9.5110    4.7750  -13.5230 N   0  0  0  0  0  0  0  0  0  0  0  0
    8.4110    5.5010  -12.9260 C   0  0  0  0  0  0  0  0  0  0  0  0
    7.3040    4.5020  -12.9750 C   0  0  0  0  0  0  0  0  0  0  0  0
    6.0020    4.6390  -12.5330 C   0  0  0  0  0  0  0  0  0  0  0  0
    5.1370    3.5520  -12.6890 C   0  0  0  0  0  0  0  0  0  0  0  0
    5.5640    2.3390  -13.2790 C   0  0  0  0  0  0  0  0  0  0  0  0
    4.6750    1.2620  -13.4240 C   0  0  0  0  0  0  0  0  0  0  0  0
    5.0880    0.0620  -14.0070 C   0  0  0  0  0  0  0  0  0  0  0  0
    6.3970   -0.0790  -14.4520 C   0  0  0  0  0  0  0  0  0  0  0  0
    7.2970    0.9780  -14.3180 C   0  0  0  0  0  0  0  0  0  0  0  0
    6.9000    2.2000  -13.7330 C   0  0  0  0  0  0  0  0  0  0  0  0
    7.7390    3.3080  -13.5620 C   0  0  0  0  0  0  0  0  0  0  0  0
    9.1630    3.4930  -13.9160 C   0  0  0  0  0  0  0  0  0  0  0  0
    9.8850    2.6700  -14.4460 O   0  0  0  0  0  0  0  0  0  0  0  0
  1  2  1  0
  2  3  1  0
  3  7  1  0
  4 15  1  0
  5  4  1  0
  6  5  1  0
  7  8  1  0
  7  6  1  0
  8  9  1  0
  9  4  1  0
 10 11  2  0
 11 12  1  0
 13 12  2  0
 14 13  1  0
 15 10  1  0
 15 14  2  0
 17 16  1  0
 17 10  1  0
 18  1  1  0
 19 20  1  0
 19 18  1  0
 20 21  1  0
 22 21  1  0
 22 23  1  0
 24 23  2  0
 25 24  1  0
 26 25  2  0
 27 26  1  0
 28 29  1  0
 28 27  2  0
 29 30  2  0
 30 31  1  0
 30 25  1  0
 31 22  2  0
 32 31  1  0
 32 20  1  0
 33 32  2  0
M  END
$$$$
