lig_173
     RDKit          3D

 34 38  0  0  0  0  0  0  0  0999 V2000
   -1.6310    6.0710   17.3880 C   0  0  0  0  0  0  0  0  0  0  0  0
   -0.5750    5.6890   18.1620 C   0  0  0  0  0  0  0  0  0  0  0  0
    0.4940    6.5130   18.5230 N   0  0  0  0  0  0  0  0  0  0  0  0
    0.5200    7.7300   18.0590 C   0  0  0  0  0  0  0  0  0  0  0  0
    1.5400    8.5950   18.3590 N   0  0  0  0  0  0  0  0  0  0  0  0
   -0.5290    8.1760   17.2470 N   0  0  0  0  0  0  0  0  0  0  0  0
   -0.6200    9.4330   16.7570 N   0  0  0  0  0  0  0  0  0  0  0  0
   -1.7930    9.3670   16.1020 C   0  0  0  0  0  0  0  0  0  0  0  0
   -2.4050    8.1320   16.1420 N   0  0  0  0  0  0  0  0  0  0  0  0
   -1.5990    7.4110   16.8940 C   0  0  0  0  0  0  0  0  0  0  0  0
   -3.4530    1.6240   16.0120 C   0  0  0  0  0  0  0  0  0  0  0  0
   -3.6580    3.0550   16.4090 C   0  0  0  0  0  0  0  0  0  0  0  0
   -2.5620    3.8570   16.7080 C   0  0  0  0  0  0  0  0  0  0  0  0
   -2.7780    5.1860   17.0770 C   0  0  0  0  0  0  0  0  0  0  0  0
   -4.0870    5.6690   17.1200 C   0  0  0  0  0  0  0  0  0  0  0  0
   -5.1180    4.7960   16.8190 C   0  0  0  0  0  0  0  0  0  0  0  0
   -4.9330    3.5110   16.4540 N   0  0  0  0  0  0  0  0  0  0  0  0
   -6.3880    5.3200   16.8530 O   0  0  0  0  0  0  0  0  0  0  0  0
   -7.0920    4.9300   18.0150 C   0  0  0  0  0  0  0  0  0  0  0  0
   -7.4860    6.0430   18.6850 F   0  0  0  0  0  0  0  0  0  0  0  0
   -8.2370    4.3270   17.5910 F   0  0  0  0  0  0  0  0  0  0  0  0
   -0.4560    4.3470   18.6860 C   0  0  0  0  0  0  0  0  0  0  0  0
    0.6000    3.5400   18.6090 N   0  0  0  0  0  0  0  0  0  0  0  0
    0.2390    2.3840   19.2470 C   0  0  0  0  0  0  0  0  0  0  0  0
   -1.0360    2.5050   19.7220 C   0  0  0  0  0  0  0  0  0  0  0  0
   -1.4940    3.7360   19.3840 O   0  0  0  0  0  0  0  0  0  0  0  0
   -2.3520   10.5160   15.3390 C   0  0  0  0  0  0  0  0  0  0  0  0
   -1.4560   11.6890   15.6240 C   0  0  0  0  0  0  0  0  0  0  0  0
   -0.2860   11.7730   14.9260 N   0  0  0  0  0  0  0  0  0  0  0  0
    0.5200   12.8270   15.1810 C   0  0  0  0  0  0  0  0  0  0  0  0
    0.2350   13.8080   16.1170 C   0  0  0  0  0  0  0  0  0  0  0  0
   -0.9490   13.7020   16.8400 C   0  0  0  0  0  0  0  0  0  0  0  0
   -1.7990   12.6330   16.5910 C   0  0  0  0  0  0  0  0  0  0  0  0
   -2.9290   12.5180   17.3000 F   0  0  0  0  0  0  0  0  0  0  0  0
  1  2  2  0
  2  3  1  0
  2 22  1  0
  4  5  1  0
  4  3  2  0
  6  4  1  0
  7  6  1  0
  8  9  1  0
  8  7  2  0
  9 10  2  0
 10  6  1  0
 10  1  1  0
 11 12  1  0
 12 17  2  0
 12 13  1  0
 13 14  2  0
 14 15  1  0
 14  1  1  0
 16 18  1  0
 16 15  2  0
 17 16  1  0
 18 19  1  0
 19 20  1  0
 21 19  1  0
 22 26  1  0
 23 22  2  0
 23 24  1  0
 24 25  2  0
 26 25  1  0
 27 28  1  0
 27  8  1  0
 28 33  1  0
 29 30  1  0
 29 28  2  0
 30 31  2  0
 31 32  1  0
 33 32  2  0
 33 34  1  0
M  END
$$$$
