lig_428
     RDKit          3D

 25 27  0  0  0  0  0  0  0  0999 V2000
   -2.7460    9.6950   15.8520 N   0  0  0  0  0  0  0  0  0  0  0  0
   -1.5800    9.1160   16.3650 C   0  0  0  0  0  0  0  0  0  0  0  0
   -0.4960    9.6830   16.4560 O   0  0  0  0  0  0  0  0  0  0  0  0
   -1.7730    7.7790   16.7890 C   0  0  0  0  0  0  0  0  0  0  0  0
   -0.9080    6.8940   17.3580 N   0  0  0  0  0  0  0  0  0  0  0  0
   -1.6010    5.7200   17.5910 C   0  0  0  0  0  0  0  0  0  0  0  0
   -2.8590    5.8560   17.1840 N   0  0  0  0  0  0  0  0  0  0  0  0
   -2.9500    7.1170   16.6890 C   0  0  0  0  0  0  0  0  0  0  0  0
   -4.0650    7.7130   16.1520 N   0  0  0  0  0  0  0  0  0  0  0  0
   -3.9960    9.0490   15.7460 C   0  0  0  0  0  0  0  0  0  0  0  0
   -4.9970    9.6350   15.3190 O   0  0  0  0  0  0  0  0  0  0  0  0
   -1.0240    4.5180   18.2040 C   0  0  0  0  0  0  0  0  0  0  0  0
   -1.8130    3.3610   18.3110 C   0  0  0  0  0  0  0  0  0  0  0  0
   -1.3080    2.1930   18.8880 C   0  0  0  0  0  0  0  0  0  0  0  0
   -0.0010    2.1650   19.3680 C   0  0  0  0  0  0  0  0  0  0  0  0
    0.7980    3.3020   19.2690 C   0  0  0  0  0  0  0  0  0  0  0  0
    0.2910    4.4700   18.6910 C   0  0  0  0  0  0  0  0  0  0  0  0
   -2.6520   11.0790   15.3960 C   0  0  0  0  0  0  0  0  0  0  0  0
   -2.0440   12.8740   17.1050 C   0  0  0  0  0  0  0  0  0  0  0  0
   -3.1590   12.0890   16.4320 C   0  0  0  0  0  0  0  0  0  0  0  0
   -5.3380    6.9980   16.0780 C   0  0  0  0  0  0  0  0  0  0  0  0
   -5.2990    5.8910   15.0240 C   0  0  0  0  0  0  0  0  0  0  0  0
   -5.5020    4.2260   15.7460 S   0  0  0  0  0  0  0  0  0  0  0  0
   -6.4530    4.6640   17.2360 C   0  0  0  0  0  0  0  0  0  0  0  0
   -7.5860    3.6720   17.4350 C   0  0  0  0  0  0  0  0  0  0  0  0
  1  2  1  0
  2  3  2  0
  2  4  1  0
  4  5  1  0
  5  6  1  0
  6 12  1  0
  7  6  2  0
  8  4  2  0
  8  7  1  0
  9  8  1  0
 10  1  1  0
 10  9  1  0
 11 10  2  0
 12 13  2  0
 12 17  1  0
 13 14  1  0
 14 15  2  0
 16 15  1  0
 17 16  2  0
 18  1  1  0
 18 20  1  0
 20 19  1  0
 21  9  1  0
 22 23  1  0
 22 21  1  0
 23 24  1  0
 24 25  1  0
M  END
$$$$
