lig_113
     RDKit          3D

 24 27  0  0  0  0  0  0  0  0999 V2000
   -0.3850  -18.2670   11.6100 O   0  0  0  0  0  0  0  0  0  0  0  0
    0.1080  -18.5240   12.6960 C   0  0  0  0  0  0  0  0  0  0  0  0
    0.8040  -17.5870   13.4770 N   0  0  0  0  0  0  0  0  0  0  0  0
    1.5020  -18.2410   14.5510 C   0  0  0  0  0  0  0  0  0  0  0  0
    0.7810  -19.5720   14.6790 C   0  0  0  0  0  0  0  0  0  0  0  0
    0.1230  -19.7500   13.4010 N   0  0  0  0  0  0  0  0  0  0  0  0
   -0.5000  -20.9670   13.0120 C   0  0  0  0  0  0  0  0  0  0  0  0
   -0.0530  -21.6640   11.8760 C   0  0  0  0  0  0  0  0  0  0  0  0
   -0.6520  -22.8620   11.4710 C   0  0  0  0  0  0  0  0  0  0  0  0
   -1.7160  -23.3860   12.1960 C   0  0  0  0  0  0  0  0  0  0  0  0
   -2.1720  -22.7080   13.3230 C   0  0  0  0  0  0  0  0  0  0  0  0
   -3.4930  -23.3540   14.2200 Cl  0  0  0  0  0  0  0  0  0  0  0  0
   -1.5730  -21.5120   13.7290 C   0  0  0  0  0  0  0  0  0  0  0  0
    1.1970  -16.2840   12.9640 C   0  0  0  0  0  0  0  0  0  0  0  0
    0.0530  -15.2530   13.0030 C   0  0  0  0  0  0  0  0  0  0  0  0
   -0.3390  -14.7940   11.6680 N   0  0  0  0  0  0  0  0  0  0  0  0
   -0.7820  -13.3790   11.6680 C   0  0  0  0  0  0  0  0  0  0  0  0
   -0.3770  -12.8550   10.3270 C   0  0  0  0  0  0  0  0  0  0  0  0
   -0.7400  -11.6800    9.6940 C   0  0  0  0  0  0  0  0  0  0  0  0
   -0.1850  -11.4100    8.4410 C   0  0  0  0  0  0  0  0  0  0  0  0
    0.7220  -12.3060    7.8490 C   0  0  0  0  0  0  0  0  0  0  0  0
    1.0870  -13.4850    8.5050 C   0  0  0  0  0  0  0  0  0  0  0  0
    0.5230  -13.7460    9.7410 C   0  0  0  0  0  0  0  0  0  0  0  0
    0.7510  -14.8970   10.6670 C   0  0  0  0  0  0  0  0  0  0  0  0
  1  2  2  0
  2  6  1  0
  2  3  1  0
  3  4  1  0
  4  5  1  0
  6  5  1  0
  7  6  1  0
  7 13  1  0
  8  7  2  0
  9  8  1  0
  9 10  2  0
 10 11  1  0
 11 13  2  0
 11 12  1  0
 14 15  1  0
 14  3  1  0
 16 17  1  0
 16 15  1  0
 18 17  1  0
 19 18  2  0
 20 19  1  0
 21 20  2  0
 21 22  1  0
 22 23  2  0
 23 18  1  0
 23 24  1  0
 24 16  1  0
M  END
$$$$
