lig_027
     RDKit          3D

 33 36  0  0  0  0  0  0  0  0999 V2000
   14.4170   -0.2250   55.9020 C   0  0  0  0  0  0  0  0  0  0  0  0
   13.0300   -0.1280   55.9970 C   0  0  0  0  0  0  0  0  0  0  0  0
   12.4450    0.3670   57.1650 C   0  0  0  0  0  0  0  0  0  0  0  0
   13.2390    0.7700   58.2400 C   0  0  0  0  0  0  0  0  0  0  0  0
   14.6360    0.6930   58.1210 C   0  0  0  0  0  0  0  0  0  0  0  0
   15.2400    0.2090   56.9510 C   0  0  0  0  0  0  0  0  0  0  0  0
   12.7240    1.2860   59.4490 N   0  0  0  0  0  0  0  0  0  0  0  0
   11.8940    0.6410   60.3550 C   0  0  0  0  0  0  0  0  0  0  0  0
   11.5560   -0.5320   60.2850 O   0  0  0  0  0  0  0  0  0  0  0  0
   11.5030    1.5240   61.3530 N   0  0  0  0  0  0  0  0  0  0  0  0
   10.7540    1.2320   62.5120 C   0  0  0  0  0  0  0  0  0  0  0  0
   11.3180    0.8150   63.7200 C   0  0  0  0  0  0  0  0  0  0  0  0
   10.5060    0.5540   64.8310 C   0  0  0  0  0  0  0  0  0  0  0  0
    9.1270    0.7150   64.7380 C   0  0  0  0  0  0  0  0  0  0  0  0
    8.1310    0.3960   66.1030 Cl  0  0  0  0  0  0  0  0  0  0  0  0
    8.5520    1.1370   63.5430 C   0  0  0  0  0  0  0  0  0  0  0  0
    9.3640    1.3970   62.4340 C   0  0  0  0  0  0  0  0  0  0  0  0
   16.7000    0.1460   56.8710 C   0  0  0  0  0  0  0  0  0  0  0  0
   17.5530    0.6660   55.9150 C   0  0  0  0  0  0  0  0  0  0  0  0
   18.8470    0.3340   56.3470 C   0  0  0  0  0  0  0  0  0  0  0  0
   18.8370   -0.3630   57.4820 N   0  0  0  0  0  0  0  0  0  0  0  0
   17.5250   -0.4730   57.7840 N   0  0  0  0  0  0  0  0  0  0  0  0
   17.1520   -1.2250   58.9610 C   0  0  0  0  0  0  0  0  0  0  0  0
   14.9590   -0.7020   54.7370 O   0  0  0  0  0  0  0  0  0  0  0  0
   14.4280    0.0190   53.6100 C   0  0  0  0  0  0  0  0  0  0  0  0
   15.3540    1.2150   53.3360 C   0  0  0  0  0  0  0  0  0  0  0  0
   13.5730    3.0220   49.2120 C   0  0  0  0  0  0  0  0  0  0  0  0
   13.4330    3.8270   50.4220 N   0  0  0  0  0  0  0  0  0  0  0  0
   12.6420    3.1280   51.4540 C   0  0  0  0  0  0  0  0  0  0  0  0
   13.3760    1.9660   52.1630 C   0  0  0  0  0  0  0  0  0  0  0  0
   14.6740    2.3770   52.7380 N   0  0  0  0  0  0  0  0  0  0  0  0
   15.4950    3.0360   51.7040 C   0  0  0  0  0  0  0  0  0  0  0  0
   14.7450    4.1900   50.9920 C   0  0  0  0  0  0  0  0  0  0  0  0
  1  2  1  0
  1  6  2  0
  2  3  2  0
  3  4  1  0
  4  7  1  0
  5  4  2  0
  6  5  1  0
  7  8  1  0
  8 10  1  0
  9  8  2  0
 10 11  1  0
 11 12  1  0
 12 13  2  0
 14 13  1  0
 14 15  1  0
 16 14  2  0
 17 11  2  0
 17 16  1  0
 18  6  1  0
 18 22  1  0
 19 20  1  0
 19 18  2  0
 20 21  2  0
 21 22  1  0
 22 23  1  0
 24  1  1  0
 25 24  1  0
 26 25  1  0
 27 28  1  0
 28 33  1  0
 28 29  1  0
 29 30  1  0
 30 31  1  0
 31 26  1  0
 32 31  1  0
 33 32  1  0
M  END
$$$$
