lig_005
     RDKit          3D

 31 35  0  0  1  0  0  0  0  0999 V2000
   12.4780   -0.2980   56.0310 C   0  0  0  0  0  0  0  0  0  0  0  0
   16.1220    0.3810   55.1860 C   0  0  1  0  0  0  0  0  0  0  0  0
   15.2120   -0.5830   54.4170 C   0  0  0  0  0  0  0  0  0  0  0  0
   14.5320   -1.6120   55.3230 C   0  0  0  0  0  0  0  0  0  0  0  0
   13.7790   -0.9790   56.5080 C   0  0  1  0  0  0  0  0  0  0  0  0
   14.7180   -0.0320   57.2750 C   0  0  0  0  0  0  0  0  0  0  0  0
   15.3870    1.0120   56.3780 C   0  0  0  0  0  0  0  0  0  0  0  0
   18.3770    1.6040   56.3630 O   0  0  0  0  0  0  0  0  0  0  0  0
   18.3700    0.3830   56.2310 C   0  0  0  0  0  0  0  0  0  0  0  0
   17.3390   -0.2930   55.6180 N   0  0  0  0  0  0  0  0  0  0  0  0
   19.4450   -0.4480   56.7290 C   0  0  0  0  0  0  0  0  0  0  0  0
   19.6180   -1.1540   57.9110 C   0  0  0  0  0  0  0  0  0  0  0  0
   20.8780   -1.7990   57.8600 C   0  0  0  0  0  0  0  0  0  0  0  0
   21.4500   -1.4830   56.6500 C   0  0  0  0  0  0  0  0  0  0  0  0
   20.5780   -0.6730   55.9740 N   0  0  0  0  0  0  0  0  0  0  0  0
   11.9730    0.8850   56.8780 C   0  0  0  0  0  0  0  0  0  0  0  0
   11.2310    0.6000   58.1000 N   0  0  0  0  0  0  0  0  0  0  0  0
   11.8630   -0.3190   59.0460 C   0  0  0  0  0  0  0  0  0  0  0  0
   10.9320   -0.6470   60.2380 C   0  0  0  0  0  0  0  0  0  0  0  0
   10.4850    0.5630   60.9590 N   0  0  0  0  0  0  0  0  0  0  0  0
   10.5170    0.5560   62.3340 C   0  0  0  0  0  0  0  0  0  0  0  0
   11.1160    1.5140   63.0430 N   0  0  0  0  0  0  0  0  0  0  0  0
   11.0100    1.1770   64.6480 S   0  0  0  0  0  0  0  0  0  0  0  0
   10.0890   -0.2570   64.4900 C   0  0  0  0  0  0  0  0  0  0  0  0
    9.5950   -1.1100   65.4920 C   0  0  0  0  0  0  0  0  0  0  0  0
    8.8350   -2.2180   65.1100 C   0  0  0  0  0  0  0  0  0  0  0  0
    8.5690   -2.4620   63.7700 C   0  0  0  0  0  0  0  0  0  0  0  0
    9.0690   -1.6070   62.7810 C   0  0  0  0  0  0  0  0  0  0  0  0
    9.8650   -0.4820   63.1290 C   0  0  0  0  0  0  0  0  0  0  0  0
   10.7850    1.8380   60.2810 C   0  0  0  0  0  0  0  0  0  0  0  0
   10.5740    1.7410   58.7510 C   0  0  0  0  0  0  0  0  0  0  0  0
  1 16  1  0
  2 10  1  1
  2  7  1  0
  3  2  1  0
  3  4  1  0
  4  5  1  0
  5  1  1  6
  5  6  1  0
  7  6  1  0
  9  8  2  0
  9 11  1  0
 10  9  1  0
 11 12  2  0
 13 12  1  0
 14 13  2  0
 15 14  1  0
 15 11  1  0
 16 17  1  0
 17 31  1  0
 17 18  1  0
 18 19  1  0
 19 20  1  0
 20 21  1  0
 21 22  2  0
 21 29  1  0
 22 23  1  0
 24 23  1  0
 24 25  2  0
 26 25  1  0
 27 26  2  0
 28 29  2  0
 28 27  1  0
 29 24  1  0
 30 20  1  0
 31 30  1  0
M  END
$$$$
