lig_416
     RDKit          3D

 31 34  0  0  0  0  0  0  0  0999 V2000
   -2.3840    4.4680   17.2070 N   0  0  0  0  0  0  0  0  0  0  0  0
   -1.7550    5.7210   17.0900 C   0  0  0  0  0  0  0  0  0  0  0  0
   -0.5530    5.9070   17.2680 O   0  0  0  0  0  0  0  0  0  0  0  0
   -2.6650    6.7830   16.7300 C   0  0  0  0  0  0  0  0  0  0  0  0
   -2.4030    8.1170   16.5260 N   0  0  0  0  0  0  0  0  0  0  0  0
   -3.5660    8.6560   16.2110 C   0  0  0  0  0  0  0  0  0  0  0  0
   -4.5640    7.7100   16.2100 N   0  0  0  0  0  0  0  0  0  0  0  0
   -3.9920    6.5170   16.5390 C   0  0  0  0  0  0  0  0  0  0  0  0
   -4.5880    5.2810   16.6610 N   0  0  0  0  0  0  0  0  0  0  0  0
   -3.7570    4.1990   17.0120 C   0  0  0  0  0  0  0  0  0  0  0  0
   -4.2200    3.0630   17.1430 O   0  0  0  0  0  0  0  0  0  0  0  0
   -3.7730   10.1510   15.8860 C   0  0  0  0  0  0  0  0  0  0  0  0
   -4.9200   10.9500   16.0130 C   0  0  0  0  0  0  0  0  0  0  0  0
   -4.7100   12.2090   15.6180 N   0  0  0  0  0  0  0  0  0  0  0  0
   -3.4030   12.2140   15.2600 N   0  0  0  0  0  0  0  0  0  0  0  0
   -2.8070   10.9910   15.3860 C   0  0  0  0  0  0  0  0  0  0  0  0
   -2.7870   13.4280   14.7430 C   0  0  0  0  0  0  0  0  0  0  0  0
   -2.5080   14.4230   15.8410 C   0  0  0  0  0  0  0  0  0  0  0  0
   -2.5480   15.8010   15.5760 C   0  0  0  0  0  0  0  0  0  0  0  0
   -2.2950   16.7240   16.5910 C   0  0  0  0  0  0  0  0  0  0  0  0
   -2.0040   16.2830   17.8800 C   0  0  0  0  0  0  0  0  0  0  0  0
   -1.9670   14.9170   18.1570 C   0  0  0  0  0  0  0  0  0  0  0  0
   -2.2190   13.9910   17.1430 C   0  0  0  0  0  0  0  0  0  0  0  0
   -1.5360    3.3310   17.5590 C   0  0  0  0  0  0  0  0  0  0  0  0
   -0.1610    2.1550   19.3060 C   0  0  0  0  0  0  0  0  0  0  0  0
   -1.0960    3.3360   19.0390 C   0  0  0  0  0  0  0  0  0  0  0  0
   -2.2870    3.2800   19.9980 C   0  0  0  0  0  0  0  0  0  0  0  0
   -6.0110    5.0250   16.4400 C   0  0  0  0  0  0  0  0  0  0  0  0
   -6.7740    4.6570   17.7270 C   0  0  0  0  0  0  0  0  0  0  0  0
   -7.5200    5.8840   18.2550 C   0  0  0  0  0  0  0  0  0  0  0  0
   -7.7610    3.5090   17.5040 C   0  0  0  0  0  0  0  0  0  0  0  0
  1 24  1  0
  2  1  1  0
  2  3  2  0
  4  2  1  0
  5  4  1  0
  6  5  2  0
  7  6  1  0
  7  8  1  0
  8  9  1  0
  8  4  2  0
  9 10  1  0
 10 11  2  0
 10  1  1  0
 12 13  1  0
 12  6  1  0
 14 13  2  0
 15 16  1  0
 15 14  1  0
 16 12  2  0
 17 15  1  0
 17 18  1  0
 18 23  1  0
 19 18  2  0
 19 20  1  0
 20 21  2  0
 21 22  1  0
 23 22  2  0
 24 26  1  0
 26 25  1  0
 26 27  1  0
 28  9  1  0
 28 29  1  0
 29 30  1  0
 31 29  1  0
M  END
$$$$
