lig_219
     RDKit          3D

 25 27  0  0  0  0  0  0  0  0999 V2000
    0.0420  -21.5900   12.5920 C   0  0  0  0  0  0  0  0  0  0  0  0
   -0.0270  -21.7880   11.3810 O   0  0  0  0  0  0  0  0  0  0  0  0
    0.5230  -20.4060   13.1400 N   0  0  0  0  0  0  0  0  0  0  0  0
    1.0580  -19.3950   12.2300 C   0  0  0  0  0  0  0  0  0  0  0  0
    1.9570  -18.3730   12.9470 C   0  0  0  0  0  0  0  0  0  0  0  0
    1.3600  -17.7370   14.1350 N   0  0  0  0  0  0  0  0  0  0  0  0
    0.1740  -18.4430   14.6420 C   0  0  0  0  0  0  0  0  0  0  0  0
    0.3010  -19.9740   14.5280 C   0  0  0  0  0  0  0  0  0  0  0  0
   -1.2210  -24.6900   15.2630 C   0  0  0  0  0  0  0  0  0  0  0  0
   -2.1710  -23.8730   14.6390 C   0  0  0  0  0  0  0  0  0  0  0  0
   -1.7750  -22.8580   13.7650 C   0  0  0  0  0  0  0  0  0  0  0  0
   -0.4170  -22.6690   13.4980 C   0  0  0  0  0  0  0  0  0  0  0  0
    0.5390  -23.4640   14.1370 C   0  0  0  0  0  0  0  0  0  0  0  0
    0.1370  -24.4780   15.0120 C   0  0  0  0  0  0  0  0  0  0  0  0
   -3.0590  -25.4110   16.5890 C   0  0  0  0  0  0  0  0  0  0  0  0
   -1.7470  -25.6430   16.0910 O   0  0  0  0  0  0  0  0  0  0  0  0
    1.1800  -16.2850   14.0230 C   0  0  0  0  0  0  0  0  0  0  0  0
    1.0800  -15.6950   12.6030 C   0  0  0  0  0  0  0  0  0  0  0  0
   -0.1920  -15.0710   12.4030 O   0  0  0  0  0  0  0  0  0  0  0  0
   -0.3120  -14.1190   11.4340 C   0  0  0  0  0  0  0  0  0  0  0  0
   -1.0490  -12.9420   11.5030 C   0  0  0  0  0  0  0  0  0  0  0  0
   -1.0670  -12.0750   10.4080 C   0  0  0  0  0  0  0  0  0  0  0  0
   -0.3460  -12.4180    9.2760 C   0  0  0  0  0  0  0  0  0  0  0  0
    0.3770  -13.5510    9.1690 N   0  0  0  0  0  0  0  0  0  0  0  0
    0.3740  -14.3710   10.2490 C   0  0  0  0  0  0  0  0  0  0  0  0
  1  3  1  0
  1 12  1  0
  2  1  2  0
  3  8  1  0
  4  5  1  0
  4  3  1  0
  5  6  1  0
  6  7  1  0
  8  7  1  0
  9 16  1  0
 10  9  1  0
 11 10  2  0
 12 11  1  0
 12 13  2  0
 13 14  1  0
 14  9  2  0
 16 15  1  0
 17  6  1  0
 18 17  1  0
 19 18  1  0
 20 21  2  0
 20 19  1  0
 22 21  1  0
 23 22  2  0
 24 23  1  0
 24 25  2  0
 25 20  1  0
M  END
$$$$
