lig_011
     RDKit          3D

 33 37  0  0  1  0  0  0  0  0999 V2000
  180.0520  167.4530  138.2510 N   0  0  0  0  0  0  0  0  0  0  0  0
  179.7020  166.4590  139.2740 C   0  0  0  0  0  0  0  0  0  0  0  0
  179.6970  165.0340  138.6860 C   0  0  0  0  0  0  0  0  0  0  0  0
  178.9480  164.9160  137.3630 C   0  0  0  0  0  0  0  0  0  0  0  0
  179.0200  163.8200  136.5570 C   0  0  0  0  0  0  0  0  0  0  0  0
  179.9060  162.6950  136.9470 C   0  0  0  0  0  0  0  0  0  0  0  0
  179.5630  161.8250  137.9910 C   0  0  0  0  0  0  0  0  0  0  0  0
  180.4130  160.7740  138.3340 C   0  0  0  0  0  0  0  0  0  0  0  0
  181.6010  160.5870  137.6290 C   0  0  0  0  0  0  0  0  0  0  0  0
  182.6480  159.2900  138.0530 Cl  0  0  0  0  0  0  0  0  0  0  0  0
  181.9430  161.4360  136.5760 C   0  0  0  0  0  0  0  0  0  0  0  0
  181.0940  162.4930  136.2230 C   0  0  0  0  0  0  0  0  0  0  0  0
  181.4180  163.4000  135.0610 C   0  0  0  0  0  0  0  0  0  0  0  0
  180.4600  163.1910  133.8800 C   0  0  0  0  0  0  0  0  0  0  0  0
  178.9830  163.4860  134.0440 C   0  0  0  0  0  0  0  0  0  0  0  0
  178.1940  163.4290  132.8800 C   0  0  0  0  0  0  0  0  0  0  0  0
  176.8220  163.6390  132.9410 C   0  0  0  0  0  0  0  0  0  0  0  0
  176.2620  163.8950  134.1740 C   0  0  0  0  0  0  0  0  0  0  0  0
  176.9720  163.9600  135.3170 N   0  0  0  0  0  0  0  0  0  0  0  0
  178.3180  163.7680  135.2460 C   0  0  0  0  0  0  0  0  0  0  0  0
  178.1840  166.1840  137.0360 C   0  0  0  0  0  0  0  0  0  0  0  0
  179.0680  167.4450  137.1490 C   0  0  0  0  0  0  0  0  0  0  0  0
  180.2480  168.7920  138.8480 C   0  0  0  0  0  0  0  0  0  0  0  0
  178.9440  169.6140  138.9730 C   0  0  1  0  0  0  0  0  0  0  0  0
  178.3980  169.3960  140.2870 O   0  0  0  0  0  0  0  0  0  0  0  0
  179.1280  171.1180  138.7260 C   0  0  0  0  0  0  0  0  0  0  0  0
  177.9060  171.7310  138.2940 O   0  0  0  0  0  0  0  0  0  0  0  0
  177.8260  172.2170  137.0200 C   0  0  0  0  0  0  0  0  0  0  0  0
  178.5690  171.7910  135.9190 C   0  0  0  0  0  0  0  0  0  0  0  0
  178.3750  172.3840  134.6670 C   0  0  0  0  0  0  0  0  0  0  0  0
  177.4380  173.4040  134.5090 C   0  0  0  0  0  0  0  0  0  0  0  0
  176.6900  173.8310  135.6020 C   0  0  0  0  0  0  0  0  0  0  0  0
  176.8850  173.2370  136.8510 C   0  0  0  0  0  0  0  0  0  0  0  0
  1 23  1  0
  1  2  1  0
  3  2  1  0
  4  3  1  0
  5  6  1  0
  5  4  2  0
  6  7  1  0
  7  8  2  0
  9 10  1  0
  9  8  1  0
 11  9  2  0
 12 11  1  0
 12  6  2  0
 13 12  1  0
 14 15  1  0
 14 13  1  0
 15 20  1  0
 16 17  1  0
 16 15  2  0
 17 18  2  0
 18 19  1  0
 20 19  2  0
 20  5  1  0
 21 22  1  0
 21  4  1  0
 22  1  1  0
 23 24  1  0
 24 26  1  0
 24 25  1  1
 27 26  1  0
 28 27  1  0
 29 28  2  0
 30 29  1  0
 31 30  2  0
 31 32  1  0
 32 33  2  0
 33 28  1  0
M  END
$$$$
