lig_335
     RDKit          3D

 28 31  0  0  0  0  0  0  0  0999 V2000
    1.5350  -17.7400   13.9900 N   0  0  0  0  0  0  0  0  0  0  0  0
    2.0550  -18.4030   12.7800 C   0  0  0  0  0  0  0  0  0  0  0  0
    1.1000  -19.4240   12.1380 C   0  0  0  0  0  0  0  0  0  0  0  0
    0.6230  -20.4230   13.0950 N   0  0  0  0  0  0  0  0  0  0  0  0
    0.0840  -21.6030   12.5950 C   0  0  0  0  0  0  0  0  0  0  0  0
   -0.0850  -21.8080   11.3950 O   0  0  0  0  0  0  0  0  0  0  0  0
    0.5330  -19.9850   14.4950 C   0  0  0  0  0  0  0  0  0  0  0  0
    0.4080  -18.4540   14.6090 C   0  0  0  0  0  0  0  0  0  0  0  0
   -0.3130  -22.6690   13.5440 C   0  0  0  0  0  0  0  0  0  0  0  0
    0.6890  -23.4570   14.1170 C   0  0  0  0  0  0  0  0  0  0  0  0
    0.3710  -24.4690   15.0290 C   0  0  0  0  0  0  0  0  0  0  0  0
   -0.9810  -24.6450   15.3510 C   0  0  0  0  0  0  0  0  0  0  0  0
   -1.5780  -25.5440   16.2060 N   0  0  0  0  0  0  0  0  0  0  0  0
   -2.9330  -25.3510   16.2250 C   0  0  0  0  0  0  0  0  0  0  0  0
   -3.2230  -24.3100   15.3750 C   0  0  0  0  0  0  0  0  0  0  0  0
   -1.9970  -23.8560   14.8120 C   0  0  0  0  0  0  0  0  0  0  0  0
   -1.6600  -22.8390   13.8990 C   0  0  0  0  0  0  0  0  0  0  0  0
    1.3000  -16.2980   13.8360 C   0  0  0  0  0  0  0  0  0  0  0  0
    0.1060  -15.8670   12.9620 C   0  0  0  0  0  0  0  0  0  0  0  0
    0.5200  -15.6570   11.6080 O   0  0  0  0  0  0  0  0  0  0  0  0
   -0.6060  -11.9690   10.0040 C   0  0  0  0  0  0  0  0  0  0  0  0
   -1.1200  -12.4440   11.2080 C   0  0  0  0  0  0  0  0  0  0  0  0
   -0.7090  -13.6870   11.7020 C   0  0  0  0  0  0  0  0  0  0  0  0
    0.2190  -14.4680   11.0070 C   0  0  0  0  0  0  0  0  0  0  0  0
    0.7290  -13.9940    9.8010 C   0  0  0  0  0  0  0  0  0  0  0  0
    0.3180  -12.7510    9.3060 C   0  0  0  0  0  0  0  0  0  0  0  0
   -2.0180  -10.0590    9.9460 C   0  0  0  0  0  0  0  0  0  0  0  0
   -0.9170  -10.7800    9.4060 O   0  0  0  0  0  0  0  0  0  0  0  0
  1  8  1  0
  2  1  1  0
  3  2  1  0
  3  4  1  0
  4  7  1  0
  5  4  1  0
  5  9  1  0
  6  5  2  0
  7  8  1  0
  9 17  1  0
  9 10  2  0
 10 11  1  0
 11 12  2  0
 12 13  1  0
 13 14  1  0
 15 14  2  0
 16 12  1  0
 16 15  1  0
 17 16  2  0
 18  1  1  0
 19 18  1  0
 20 19  1  0
 21 22  1  0
 22 23  2  0
 24 20  1  0
 24 23  1  0
 25 24  2  0
 26 25  1  0
 26 21  2  0
 28 27  1  0
 28 21  1  0
M  END
$$$$
