lig_003
     RDKit          3D

 29 33  0  0  0  0  0  0  0  0999 V2000
   -2.7890    7.5250   16.5670 N   0  0  0  0  0  0  0  0  0  0  0  0
   -1.5250    7.0780   16.8000 N   0  0  0  0  0  0  0  0  0  0  0  0
   -0.7630    8.1740   16.6810 C   0  0  0  0  0  0  0  0  0  0  0  0
   -1.5340    9.2820   16.3720 C   0  0  0  0  0  0  0  0  0  0  0  0
   -2.8460    8.8690   16.2900 C   0  0  0  0  0  0  0  0  0  0  0  0
   -3.9700    9.5970   16.0000 N   0  0  0  0  0  0  0  0  0  0  0  0
   -3.7780   10.8840   15.7840 C   0  0  0  0  0  0  0  0  0  0  0  0
   -4.8350   11.7100   15.4890 N   0  0  0  0  0  0  0  0  0  0  0  0
   -2.4770   11.4590   15.8280 N   0  0  0  0  0  0  0  0  0  0  0  0
   -2.1960   12.7510   15.5570 N   0  0  0  0  0  0  0  0  0  0  0  0
   -0.8600   12.7580   15.7240 C   0  0  0  0  0  0  0  0  0  0  0  0
   -0.2930   11.5380   16.0600 N   0  0  0  0  0  0  0  0  0  0  0  0
   -1.3390   10.7580   16.1020 C   0  0  0  0  0  0  0  0  0  0  0  0
    0.0030   14.0500   15.5440 C   0  0  0  0  0  0  0  0  0  0  0  0
   -0.0620   14.9110   14.4640 C   0  0  0  0  0  0  0  0  0  0  0  0
    0.8810   15.9390   14.7060 C   0  0  0  0  0  0  0  0  0  0  0  0
    1.4640   15.6440   15.9150 C   0  0  0  0  0  0  0  0  0  0  0  0
    0.9400   14.5040   16.4310 O   0  0  0  0  0  0  0  0  0  0  0  0
   -3.9080    6.6010   16.6190 C   0  0  0  0  0  0  0  0  0  0  0  0
   -3.4430    5.1480   16.5470 C   0  0  0  0  0  0  0  0  0  0  0  0
   -3.5140    4.4390   17.9030 C   0  0  0  0  0  0  0  0  0  0  0  0
    0.1940    2.5170   19.0490 C   0  0  0  0  0  0  0  0  0  0  0  0
   -0.9410    1.7550   18.7370 C   0  0  0  0  0  0  0  0  0  0  0  0
   -2.1370    2.3740   18.3700 C   0  0  0  0  0  0  0  0  0  0  0  0
   -2.2260    3.7690   18.3090 C   0  0  0  0  0  0  0  0  0  0  0  0
   -1.0960    4.5340   18.6250 C   0  0  0  0  0  0  0  0  0  0  0  0
    0.1030    3.9130   18.9910 C   0  0  0  0  0  0  0  0  0  0  0  0
    1.4810    1.8450   19.4540 C   0  0  0  0  0  0  0  0  0  0  0  0
    2.6460    2.6240   19.0540 N   0  0  0  0  0  0  0  0  0  0  0  0
  1 19  1  0
  1  2  1  0
  3  2  2  0
  4  3  1  0
  5  4  2  0
  5  1  1  0
  6  5  1  0
  7  9  1  0
  7  6  2  0
  8  7  1  0
  9 13  1  0
 10 11  2  0
 10  9  1  0
 11 12  1  0
 12 13  2  0
 13  4  1  0
 14 11  1  0
 14 18  1  0
 15 16  1  0
 15 14  2  0
 16 17  2  0
 17 18  1  0
 20 19  1  0
 20 21  1  0
 21 25  1  0
 22 28  1  0
 23 22  1  0
 24 23  2  0
 25 24  1  0
 25 26  2  0
 26 27  1  0
 27 22  2  0
 29 28  1  0
M  END
$$$$
