lig_350
     RDKit          3D

 29 33  0  0  0  0  0  0  0  0999 V2000
   -4.1450  -23.5730   19.5510 C   0  0  0  0  0  0  0  0  0  0  0  0
   -3.6520  -23.4280   18.1950 N   0  0  0  0  0  0  0  0  0  0  0  0
   -2.9770  -22.2610   17.7790 C   0  0  0  0  0  0  0  0  0  0  0  0
   -2.6500  -21.3060   18.7390 N   0  0  0  0  0  0  0  0  0  0  0  0
   -1.6920  -21.6480   19.8040 C   0  0  0  0  0  0  0  0  0  0  0  0
   -0.7950  -20.4240   19.9560 C   0  0  0  0  0  0  0  0  0  0  0  0
   -1.6940  -19.2890   19.5080 C   0  0  0  0  0  0  0  0  0  0  0  0
   -2.4120  -19.9150   18.3230 C   0  0  0  0  0  0  0  0  0  0  0  0
   -2.6430  -22.0210   16.5340 N   0  0  0  0  0  0  0  0  0  0  0  0
   -2.9320  -23.0290   15.6240 C   0  0  0  0  0  0  0  0  0  0  0  0
   -2.6590  -23.0510   14.2380 C   0  0  0  0  0  0  0  0  0  0  0  0
   -3.1720  -24.2630   13.7880 C   0  0  0  0  0  0  0  0  0  0  0  0
   -3.6860  -24.9520   14.8620 N   0  0  0  0  0  0  0  0  0  0  0  0
   -3.5440  -24.1880   15.9850 C   0  0  0  0  0  0  0  0  0  0  0  0
   -3.9460  -24.4740   17.3160 C   0  0  0  0  0  0  0  0  0  0  0  0
   -4.4940  -25.5260   17.6340 O   0  0  0  0  0  0  0  0  0  0  0  0
   -2.0080  -21.9780   13.4220 C   0  0  0  0  0  0  0  0  0  0  0  0
   -0.6160  -22.3320   13.0920 N   0  0  0  0  0  0  0  0  0  0  0  0
   -0.1830  -21.8390   11.7630 C   0  0  0  0  0  0  0  0  0  0  0  0
   -0.0220  -20.3050   11.6480 C   0  0  0  0  0  0  0  0  0  0  0  0
    0.8820  -19.7970   12.7040 N   0  0  0  0  0  0  0  0  0  0  0  0
    0.4990  -20.2400   14.0600 C   0  0  0  0  0  0  0  0  0  0  0  0
    0.3130  -21.7780   14.1030 C   0  0  0  0  0  0  0  0  0  0  0  0
    1.0960  -18.4070   12.6170 C   0  0  0  0  0  0  0  0  0  0  0  0
    2.3090  -17.8670   13.0510 C   0  0  0  0  0  0  0  0  0  0  0  0
    2.5380  -16.4940   12.9590 C   0  0  0  0  0  0  0  0  0  0  0  0
    1.5530  -15.6810   12.4260 C   0  0  0  0  0  0  0  0  0  0  0  0
    0.3840  -16.2820   12.0000 C   0  0  0  0  0  0  0  0  0  0  0  0
    0.1450  -17.6110   12.0810 N   0  0  0  0  0  0  0  0  0  0  0  0
  2  1  1  0
  3  2  1  0
  3  4  1  0
  4  5  1  0
  5  6  1  0
  7  6  1  0
  8  4  1  0
  8  7  1  0
  9  3  2  0
 10 14  2  0
 10  9  1  0
 11 10  1  0
 12 11  2  0
 12 13  1  0
 13 14  1  0
 14 15  1  0
 15 16  2  0
 15  2  1  0
 17 11  1  0
 18 17  1  0
 18 23  1  0
 19 18  1  0
 20 19  1  0
 20 21  1  0
 21 22  1  0
 22 23  1  0
 24 21  1  0
 24 25  2  0
 26 25  1  0
 27 26  2  0
 28 29  2  0
 28 27  1  0
 29 24  1  0
M  END
$$$$
