lig_083
     RDKit          3D

 28 29  0  0  1  0  0  0  0  0999 V2000
  -25.0630    7.6050    7.2150 C   0  0  0  0  0  0  0  0  0  0  0  0
  -25.3530    9.0320    7.3790 N   0  0  0  0  0  0  0  0  0  0  0  0
  -25.3720    9.7630    6.1050 C   0  0  0  0  0  0  0  0  0  0  0  0
  -26.7130    9.5810    5.3720 C   0  0  2  0  0  0  0  0  0  0  0  0
  -26.4800    9.6480    3.9530 O   0  0  0  0  0  0  0  0  0  0  0  0
  -27.7570   10.6330    5.7750 C   0  0  0  0  0  0  0  0  0  0  0  0
  -28.2240   10.3690    7.1060 O   0  0  0  0  0  0  0  0  0  0  0  0
  -29.5300   10.0060    7.2860 C   0  0  0  0  0  0  0  0  0  0  0  0
  -30.0630    8.7250    7.1360 C   0  0  0  0  0  0  0  0  0  0  0  0
  -31.4270    8.5040    7.3460 C   0  0  0  0  0  0  0  0  0  0  0  0
  -32.2550    9.5620    7.7030 C   0  0  0  0  0  0  0  0  0  0  0  0
  -31.7410   10.8440    7.8550 C   0  0  0  0  0  0  0  0  0  0  0  0
  -30.3770   11.0600    7.6440 C   0  0  0  0  0  0  0  0  0  0  0  0
  -33.5780    9.2980    7.8970 O   0  0  0  0  0  0  0  0  0  0  0  0
  -26.3140    6.7140    7.2080 C   0  0  0  0  0  0  0  0  0  0  0  0
  -26.0190    3.5320   10.1160 C   0  0  0  0  0  0  0  0  0  0  0  0
  -24.9540    4.4080    9.9250 C   0  0  0  0  0  0  0  0  0  0  0  0
  -25.0460    5.4310    8.9770 C   0  0  0  0  0  0  0  0  0  0  0  0
  -26.2100    5.5950    8.2170 C   0  0  0  0  0  0  0  0  0  0  0  0
  -27.2890    4.7300    8.4350 C   0  0  0  0  0  0  0  0  0  0  0  0
  -27.1940    3.7080    9.3830 C   0  0  0  0  0  0  0  0  0  0  0  0
  -25.9760    2.4790   11.0770 N   0  0  0  0  0  0  0  0  0  0  0  0
  -25.1680    1.0410   10.7610 S   0  0  0  0  0  0  0  0  0  0  0  0
  -24.0550    1.0100   11.6860 O   0  0  0  0  0  0  0  0  0  0  0  0
  -24.9360    0.9180    9.3380 O   0  0  0  0  0  0  0  0  0  0  0  0
  -26.3450   -0.2230   11.2440 C   0  0  0  0  0  0  0  0  0  0  0  0
  -28.7050   -0.1930   10.2760 C   0  0  0  0  0  0  0  0  0  0  0  0
  -27.2790   -0.7030   10.1380 C   0  0  0  0  0  0  0  0  0  0  0  0
  1  2  1  0
  3  2  1  0
  4  6  1  0
  4  3  1  0
  4  5  1  6
  6  7  1  0
  7  8  1  0
  8 13  2  0
  9  8  1  0
  9 10  2  0
 10 11  1  0
 11 12  2  0
 11 14  1  0
 13 12  1  0
 15  1  1  0
 15 19  1  0
 16 22  1  0
 17 16  1  0
 18 17  2  0
 19 20  2  0
 19 18  1  0
 20 21  1  0
 21 16  2  0
 23 22  1  0
 23 26  1  0
 23 24  2  0
 25 23  2  0
 28 27  1  0
 28 26  1  0
M  END
$$$$
