lig_020
     RDKit          3D

 30 33  0  0  0  0  0  0  0  0999 V2000
  180.1620  167.1690  138.9660 C   0  0  0  0  0  0  0  0  0  0  0  0
  180.4260  168.6580  139.2290 C   0  0  0  0  0  0  0  0  0  0  0  0
  179.1900  169.4790  139.6010 C   0  0  0  0  0  0  0  0  0  0  0  0
  178.6650  170.1970  138.4890 O   0  0  0  0  0  0  0  0  0  0  0  0
  180.4950  176.0910  141.7820 O   0  0  0  0  0  0  0  0  0  0  0  0
  179.6750  175.5300  141.0580 C   0  0  0  0  0  0  0  0  0  0  0  0
  178.3550  176.1650  140.6890 C   0  0  0  0  0  0  0  0  0  0  0  0
  177.8900  175.7550  139.3020 C   0  0  0  0  0  0  0  0  0  0  0  0
  177.9980  174.2680  139.1090 C   0  0  0  0  0  0  0  0  0  0  0  0
  177.1640  173.5870  138.2180 C   0  0  0  0  0  0  0  0  0  0  0  0
  177.3450  172.2180  137.9870 C   0  0  0  0  0  0  0  0  0  0  0  0
  178.3710  171.5240  138.6280 C   0  0  0  0  0  0  0  0  0  0  0  0
  179.2140  172.2100  139.5090 C   0  0  0  0  0  0  0  0  0  0  0  0
  179.0200  173.5680  139.7530 C   0  0  0  0  0  0  0  0  0  0  0  0
  179.8740  174.2440  140.6320 N   0  0  0  0  0  0  0  0  0  0  0  0
  179.7810  166.8680  137.5090 C   0  0  0  0  0  0  0  0  0  0  0  0
  178.7550  165.8210  137.3880 N   0  0  0  0  0  0  0  0  0  0  0  0
  178.2280  165.7030  136.0070 C   0  0  0  0  0  0  0  0  0  0  0  0
  177.6080  164.3240  135.6720 C   0  0  0  0  0  0  0  0  0  0  0  0
  178.5900  163.2340  135.8600 N   0  0  0  0  0  0  0  0  0  0  0  0
  179.7100  163.5400  136.7650 C   0  0  0  0  0  0  0  0  0  0  0  0
  179.2520  164.5110  137.8770 C   0  0  0  0  0  0  0  0  0  0  0  0
  178.7210  162.2780  134.8480 C   0  0  0  0  0  0  0  0  0  0  0  0
  178.0940  161.0220  134.9750 C   0  0  0  0  0  0  0  0  0  0  0  0
  178.2130  160.0240  134.0050 C   0  0  0  0  0  0  0  0  0  0  0  0
  178.9670  160.2570  132.8610 C   0  0  0  0  0  0  0  0  0  0  0  0
  179.5880  161.4920  132.6820 C   0  0  0  0  0  0  0  0  0  0  0  0
  180.4920  161.7020  131.2180 Cl  0  0  0  0  0  0  0  0  0  0  0  0
  179.4670  162.5030  133.6560 C   0  0  0  0  0  0  0  0  0  0  0  0
  180.1710  164.0670  133.3360 Cl  0  0  0  0  0  0  0  0  0  0  0  0
  1  2  1  0
  2  3  1  0
  4 12  1  0
  4  3  1  0
  6  5  2  0
  7  6  1  0
  8  7  1  0
  9  8  1  0
  9 14  2  0
 10  9  1  0
 11 10  2  0
 11 12  1  0
 12 13  2  0
 13 14  1  0
 14 15  1  0
 15  6  1  0
 16  1  1  0
 17 16  1  0
 17 22  1  0
 18 17  1  0
 19 20  1  0
 19 18  1  0
 20 21  1  0
 21 22  1  0
 23 24  2  0
 23 20  1  0
 25 24  1  0
 26 25  2  0
 27 26  1  0
 27 29  2  0
 28 27  1  0
 29 23  1  0
 30 29  1  0
M  END
$$$$
