lig_203
     RDKit          3D

 32 36  0  0  0  0  0  0  0  0999 V2000
    0.4450  -15.5620   11.5750 C   0  0  0  0  0  0  0  0  0  0  0  0
    0.0890  -16.8270   11.4640 N   0  0  0  0  0  0  0  0  0  0  0  0
    0.7260  -17.4410   12.5200 C   0  0  0  0  0  0  0  0  0  0  0  0
    0.7340  -18.7900   12.9300 C   0  0  0  0  0  0  0  0  0  0  0  0
    1.4960  -19.1070   14.0850 C   0  0  0  0  0  0  0  0  0  0  0  0
    2.2200  -18.1040   14.7680 C   0  0  0  0  0  0  0  0  0  0  0  0
    2.2120  -16.7690   14.3550 C   0  0  0  0  0  0  0  0  0  0  0  0
    1.4480  -16.5000   13.2320 C   0  0  0  0  0  0  0  0  0  0  0  0
    1.2720  -15.2880   12.6310 O   0  0  0  0  0  0  0  0  0  0  0  0
    1.5560  -20.5280   14.6060 C   0  0  0  0  0  0  0  0  0  0  0  0
    0.1810  -21.0840   15.0140 C   0  0  0  0  0  0  0  0  0  0  0  0
   -0.6830  -21.5940   13.9400 N   0  0  0  0  0  0  0  0  0  0  0  0
   -1.1130  -20.5420   13.0050 C   0  0  0  0  0  0  0  0  0  0  0  0
   -0.0260  -19.8490   12.1710 C   0  0  0  0  0  0  0  0  0  0  0  0
   -0.7170  -13.3740   11.4890 C   0  0  0  0  0  0  0  0  0  0  0  0
    0.0700  -14.4160   10.7120 C   0  0  0  0  0  0  0  0  0  0  0  0
   -0.1470  -22.8010   13.3010 C   0  0  0  0  0  0  0  0  0  0  0  0
   -0.8660  -24.1130   13.6610 C   0  0  0  0  0  0  0  0  0  0  0  0
   -0.2880  -24.8430   14.8780 C   0  0  0  0  0  0  0  0  0  0  0  0
   -1.5320  -25.2070   16.1550 S   0  0  0  0  0  0  0  0  0  0  0  0
   -1.5810  -23.6970   16.9950 C   0  0  0  0  0  0  0  0  0  0  0  0
   -0.7310  -23.2960   17.9120 N   0  0  0  0  0  0  0  0  0  0  0  0
   -1.1250  -22.0490   18.3280 N   0  0  0  0  0  0  0  0  0  0  0  0
   -2.2090  -21.7130   17.6560 C   0  0  0  0  0  0  0  0  0  0  0  0
   -2.5330  -22.7360   16.7930 N   0  0  0  0  0  0  0  0  0  0  0  0
   -3.6460  -22.7560   15.8800 C   0  0  0  0  0  0  0  0  0  0  0  0
   -2.9070  -20.4780   17.8220 C   0  0  0  0  0  0  0  0  0  0  0  0
   -2.3940  -19.2450   17.4780 O   0  0  0  0  0  0  0  0  0  0  0  0
   -3.3720  -18.3590   17.7970 C   0  0  0  0  0  0  0  0  0  0  0  0
   -4.4560  -18.8880   18.3080 N   0  0  0  0  0  0  0  0  0  0  0  0
   -4.1780  -20.2380   18.3310 C   0  0  0  0  0  0  0  0  0  0  0  0
   -5.1750  -21.2020   18.8500 C   0  0  0  0  0  0  0  0  0  0  0  0
  1  9  1  0
  2  1  2  0
  2  3  1  0
  3  4  1  0
  3  8  2  0
  4  5  2  0
  5 10  1  0
  5  6  1  0
  7  6  2  0
  8  7  1  0
  9  8  1  0
 10 11  1  0
 12 11  1  0
 13 12  1  0
 14  4  1  0
 14 13  1  0
 16 15  1  0
 16  1  1  0
 17 18  1  0
 17 12  1  0
 18 19  1  0
 19 20  1  0
 20 21  1  0
 21 22  2  0
 22 23  1  0
 24 27  1  0
 24 23  2  0
 25 21  1  0
 25 24  1  0
 26 25  1  0
 27 31  2  0
 28 29  1  0
 28 27  1  0
 29 30  2  0
 30 31  1  0
 31 32  1  0
M  END
$$$$
