lig_136
     RDKit          3D

 35 38  0  0  0  0  0  0  0  0999 V2000
   -1.8800   10.8710   15.7800 C   0  0  0  0  0  0  0  0  0  0  0  0
   -2.9190    9.9420   15.6450 C   0  0  0  0  0  0  0  0  0  0  0  0
   -2.8000    8.6440   16.1610 C   0  0  0  0  0  0  0  0  0  0  0  0
   -1.6350    8.2560   16.8190 C   0  0  0  0  0  0  0  0  0  0  0  0
   -0.5920    9.1760   16.9530 C   0  0  0  0  0  0  0  0  0  0  0  0
   -0.7120   10.4720   16.4390 C   0  0  0  0  0  0  0  0  0  0  0  0
   -3.4900   16.0800   13.2990 N   0  0  0  0  0  0  0  0  0  0  0  0
   -3.9820   14.8100   13.6060 C   0  0  0  0  0  0  0  0  0  0  0  0
   -5.1230   14.4250   13.3720 O   0  0  0  0  0  0  0  0  0  0  0  0
   -3.0180   13.9750   14.2400 C   0  0  0  0  0  0  0  0  0  0  0  0
   -3.1880   12.6870   14.6610 N   0  0  0  0  0  0  0  0  0  0  0  0
   -2.0210   12.2230   15.2360 C   0  0  0  0  0  0  0  0  0  0  0  0
   -1.1010   13.2620   15.1480 C   0  0  0  0  0  0  0  0  0  0  0  0
   -1.7410   14.3590   14.5270 C   0  0  0  0  0  0  0  0  0  0  0  0
   -1.3060   15.6350   14.2020 N   0  0  0  0  0  0  0  0  0  0  0  0
   -2.1860   16.5310   13.5720 C   0  0  0  0  0  0  0  0  0  0  0  0
   -1.8260   17.6740   13.2700 O   0  0  0  0  0  0  0  0  0  0  0  0
   -4.4030   17.0200   12.6570 C   0  0  0  0  0  0  0  0  0  0  0  0
   -6.7010   17.5690   13.6260 C   0  0  0  0  0  0  0  0  0  0  0  0
   -5.2070   17.8590   13.6580 C   0  0  0  0  0  0  0  0  0  0  0  0
    0.0490   16.0960   14.5060 C   0  0  0  0  0  0  0  0  0  0  0  0
    1.0200   15.9530   13.3310 C   0  0  0  0  0  0  0  0  0  0  0  0
    1.8710   14.6930   13.4000 C   0  0  0  0  0  0  0  0  0  0  0  0
   -1.3870    7.0280   17.3660 O   0  0  0  0  0  0  0  0  0  0  0  0
   -1.7560    5.8910   16.5870 C   0  0  0  0  0  0  0  0  0  0  0  0
   -2.8950    5.1060   17.2480 C   0  0  0  0  0  0  0  0  0  0  0  0
   -2.6730    4.3920   18.2230 O   0  0  0  0  0  0  0  0  0  0  0  0
   -4.1160    5.3070   16.6330 N   0  0  0  0  0  0  0  0  0  0  0  0
   -5.3640    4.7530   16.9710 C   0  0  0  0  0  0  0  0  0  0  0  0
   -5.6900    3.5170   16.3920 C   0  0  0  0  0  0  0  0  0  0  0  0
   -6.9110    2.9000   16.6760 C   0  0  0  0  0  0  0  0  0  0  0  0
   -7.8050    3.5190   17.5380 C   0  0  0  0  0  0  0  0  0  0  0  0
   -8.9770    2.9290   17.8110 F   0  0  0  0  0  0  0  0  0  0  0  0
   -7.5010    4.7420   18.1200 C   0  0  0  0  0  0  0  0  0  0  0  0
   -6.2790    5.3600   17.8360 C   0  0  0  0  0  0  0  0  0  0  0  0
  1  6  2  0
  2  1  1  0
  2  3  2  0
  3  4  1  0
  4  5  2  0
  4 24  1  0
  6  5  1  0
  7 16  1  0
  7  8  1  0
  8 10  1  0
  9  8  2  0
 10 14  2  0
 10 11  1  0
 11 12  1  0
 12  1  1  0
 13 12  2  0
 14 13  1  0
 15 21  1  0
 15 14  1  0
 16 15  1  0
 17 16  2  0
 18  7  1  0
 18 20  1  0
 19 20  1  0
 22 23  1  0
 22 21  1  0
 25 26  1  0
 25 24  1  0
 26 27  2  0
 28 29  1  0
 28 26  1  0
 29 35  2  0
 30 31  2  0
 30 29  1  0
 31 32  1  0
 32 33  1  0
 32 34  2  0
 35 34  1  0
M  END
$$$$
