lig_023
     RDKit          3D

 32 34  0  0  1  0  0  0  0  0999 V2000
  179.6580  168.5830  139.5610 C   0  0  1  0  0  0  0  0  0  0  0  0
  179.3650  167.9260  140.8060 O   0  0  0  0  0  0  0  0  0  0  0  0
  180.5280  167.6490  138.6900 C   0  0  0  0  0  0  0  0  0  0  0  0
  179.5470  163.7370  137.1610 C   0  0  0  0  0  0  0  0  0  0  0  0
  179.3010  164.9750  136.3040 C   0  0  0  0  0  0  0  0  0  0  0  0
  180.0970  166.1660  136.8300 C   0  0  0  0  0  0  0  0  0  0  0  0
  179.7650  166.4550  138.2370 N   0  0  0  0  0  0  0  0  0  0  0  0
  180.0450  165.2820  139.0860 C   0  0  0  0  0  0  0  0  0  0  0  0
  179.2540  164.0610  138.6240 C   0  0  0  0  0  0  0  0  0  0  0  0
  178.6490  162.7000  136.7320 O   0  0  0  0  0  0  0  0  0  0  0  0
  178.4250  159.8140  132.7240 C   0  0  0  0  0  0  0  0  0  0  0  0
  179.1680  160.3520  133.9210 C   0  0  0  0  0  0  0  0  0  0  0  0
  180.5100  160.0080  134.1690 C   0  0  0  0  0  0  0  0  0  0  0  0
  181.3960  158.9380  133.1360 Cl  0  0  0  0  0  0  0  0  0  0  0  0
  181.2040  160.5350  135.2650 C   0  0  0  0  0  0  0  0  0  0  0  0
  180.5750  161.4230  136.1330 C   0  0  0  0  0  0  0  0  0  0  0  0
  179.2460  161.7800  135.9080 C   0  0  0  0  0  0  0  0  0  0  0  0
  178.5530  161.2760  134.7950 C   0  0  0  0  0  0  0  0  0  0  0  0
  176.9270  161.8160  134.5100 Cl  0  0  0  0  0  0  0  0  0  0  0  0
  178.3410  169.0010  138.8900 C   0  0  0  0  0  0  0  0  0  0  0  0
  177.9440  170.3600  139.2180 N   0  0  0  0  0  0  0  0  0  0  0  0
  178.0420  171.3870  138.3100 C   0  0  0  0  0  0  0  0  0  0  0  0
  178.5650  171.2500  137.2100 O   0  0  0  0  0  0  0  0  0  0  0  0
  177.4460  172.6460  138.7250 C   0  0  0  0  0  0  0  0  0  0  0  0
  176.1870  173.1430  138.4440 C   0  0  0  0  0  0  0  0  0  0  0  0
  176.1000  174.3510  139.0660 N   0  0  0  0  0  0  0  0  0  0  0  0
  177.2100  174.6910  139.7320 N   0  0  0  0  0  0  0  0  0  0  0  0
  178.0510  173.6530  139.5410 C   0  0  0  0  0  0  0  0  0  0  0  0
  179.4470  173.6140  140.1190 C   0  0  0  0  0  0  0  0  0  0  0  0
  180.3000  172.8710  139.3650 F   0  0  0  0  0  0  0  0  0  0  0  0
  179.4850  173.0760  141.3710 F   0  0  0  0  0  0  0  0  0  0  0  0
  179.9860  174.8590  140.2340 F   0  0  0  0  0  0  0  0  0  0  0  0
  1  3  1  0
  1  2  1  1
  4 10  1  0
  4  9  1  0
  5  6  1  0
  5  4  1  0
  6  7  1  0
  7  3  1  0
  7  8  1  0
  9  8  1  0
 11 12  1  0
 12 13  2  0
 12 18  1  0
 13 15  1  0
 14 13  1  0
 15 16  2  0
 17 16  1  0
 17 10  1  0
 18 17  2  0
 19 18  1  0
 20 21  1  0
 20  1  1  0
 22 24  1  0
 22 21  1  0
 23 22  2  0
 24 28  1  0
 25 24  2  0
 25 26  1  0
 26 27  1  0
 28 27  2  0
 28 29  1  0
 29 32  1  0
 29 31  1  0
 30 29  1  0
M  END
$$$$
