lig_414
     RDKit          3D

 20 22  0  0  0  0  0  0  0  0999 V2000
    1.1030  -20.4250   13.0840 N   0  0  0  0  0  0  0  0  0  0  0  0
    0.6490  -21.4780   13.9170 C   0  0  0  0  0  0  0  0  0  0  0  0
    1.2480  -22.7430   13.7840 C   0  0  0  0  0  0  0  0  0  0  0  0
    0.8180  -23.8350   14.5370 C   0  0  0  0  0  0  0  0  0  0  0  0
   -0.2250  -23.6790   15.4430 C   0  0  0  0  0  0  0  0  0  0  0  0
   -0.8260  -22.4310   15.5980 C   0  0  0  0  0  0  0  0  0  0  0  0
   -0.3930  -21.3270   14.8440 C   0  0  0  0  0  0  0  0  0  0  0  0
   -1.0320  -19.9830   15.0460 C   0  0  0  0  0  0  0  0  0  0  0  0
   -0.0180  -18.9960   15.6100 C   0  0  0  0  0  0  0  0  0  0  0  0
    0.9900  -18.4400   14.6310 C   0  0  0  0  0  0  0  0  0  0  0  0
    1.4900  -17.1500   14.9350 C   0  0  0  0  0  0  0  0  0  0  0  0
    2.4150  -16.5100   14.1150 C   0  0  0  0  0  0  0  0  0  0  0  0
    2.8750  -17.1500   12.9770 C   0  0  0  0  0  0  0  0  0  0  0  0
    2.4060  -18.4290   12.6730 C   0  0  0  0  0  0  0  0  0  0  0  0
    1.4600  -19.1040   13.4820 C   0  0  0  0  0  0  0  0  0  0  0  0
    0.3890  -20.4420   11.7760 C   0  0  0  0  0  0  0  0  0  0  0  0
   -0.7770  -19.4490   11.7630 C   0  0  0  0  0  0  0  0  0  0  0  0
   -0.5550  -18.2780   10.8000 C   0  0  0  0  0  0  0  0  0  0  0  0
   -1.1220  -18.8190    8.5230 C   0  0  0  0  0  0  0  0  0  0  0  0
   -0.0450  -18.7190    9.5020 N   0  0  0  0  0  0  0  0  0  0  0  0
  1 15  1  0
  1  2  1  0
  2  7  1  0
  3  2  2  0
  3  4  1  0
  4  5  2  0
  5  6  1  0
  7  8  1  0
  7  6  2  0
  8  9  1  0
 10 11  2  0
 10  9  1  0
 12 11  1  0
 13 12  2  0
 14 13  1  0
 14 15  2  0
 15 10  1  0
 16  1  1  0
 17 16  1  0
 18 17  1  0
 19 20  1  0
 20 18  1  0
M  END
$$$$
