lig_325
     RDKit          3D

 26 28  0  0  0  0  0  0  0  0999 V2000
   -5.3090   10.3050   15.1470 N   0  0  0  0  0  0  0  0  0  0  0  0
   -4.0280   10.0430   15.5930 C   0  0  0  0  0  0  0  0  0  0  0  0
   -3.1820   11.0790   15.6140 N   0  0  0  0  0  0  0  0  0  0  0  0
   -1.9150   10.8820   16.0550 C   0  0  0  0  0  0  0  0  0  0  0  0
   -1.5310    9.6190   16.4890 C   0  0  0  0  0  0  0  0  0  0  0  0
   -0.4060    8.9560   17.0230 C   0  0  0  0  0  0  0  0  0  0  0  0
   -0.6330    7.6600   17.2660 N   0  0  0  0  0  0  0  0  0  0  0  0
   -1.9220    7.4940   16.8930 N   0  0  0  0  0  0  0  0  0  0  0  0
   -2.5070    8.6420   16.4280 C   0  0  0  0  0  0  0  0  0  0  0  0
   -3.7690    8.7940   15.9980 N   0  0  0  0  0  0  0  0  0  0  0  0
   -1.0060   12.0120   16.0490 C   0  0  0  0  0  0  0  0  0  0  0  0
    0.1910   12.3060   15.4210 C   0  0  0  0  0  0  0  0  0  0  0  0
    0.5740   13.6000   15.8500 C   0  0  0  0  0  0  0  0  0  0  0  0
   -0.4100   14.0240   16.7090 C   0  0  0  0  0  0  0  0  0  0  0  0
   -1.3690   13.0730   16.8360 O   0  0  0  0  0  0  0  0  0  0  0  0
   -2.5500    6.1900   17.0070 C   0  0  0  0  0  0  0  0  0  0  0  0
   -1.5220    5.0870   17.2540 C   0  0  0  0  0  0  0  0  0  0  0  0
   -1.9600    4.0580   18.3020 C   0  0  0  0  0  0  0  0  0  0  0  0
   -2.4490    2.7230   17.7320 C   0  0  0  0  0  0  0  0  0  0  0  0
   -3.1380    2.7690   16.3670 C   0  0  0  0  0  0  0  0  0  0  0  0
   -4.6650    2.6270   16.3820 C   0  0  0  0  0  0  0  0  0  0  0  0
   -5.4360    3.9460   16.3450 C   0  0  0  0  0  0  0  0  0  0  0  0
   -6.7490    3.9030   17.0980 C   0  0  0  0  0  0  0  0  0  0  0  0
   -7.1580    4.7860   17.8470 O   0  0  0  0  0  0  0  0  0  0  0  0
   -7.4920    2.7720   16.8350 N   0  0  0  0  0  0  0  0  0  0  0  0
   -8.6690    2.6420   17.6130 O   0  0  0  0  0  0  0  0  0  0  0  0
  1  2  1  0
  2  3  2  0
  2 10  1  0
  3  4  1  0
  4  5  2  0
  5  6  1  0
  6  7  2  0
  8 16  1  0
  8  7  1  0
  9  5  1  0
  9  8  1  0
 10  9  2  0
 11  4  1  0
 11 15  1  0
 12 13  1  0
 12 11  2  0
 13 14  2  0
 14 15  1  0
 16 17  1  0
 17 18  1  0
 19 18  1  0
 20 21  1  0
 20 19  1  0
 22 21  1  0
 22 23  1  0
 23 24  2  0
 25 23  1  0
 25 26  1  0
M  END
$$$$
