lig_110
     RDKit          3D

 23 25  0  0  0  0  0  0  0  0999 V2000
   19.7020   17.7130   11.6190 C   0  0  0  0  0  0  0  0  0  0  0  0
   20.3230   19.1040   11.4510 C   0  0  0  0  0  0  0  0  0  0  0  0
   16.5170   23.3770   10.8010 C   0  0  0  0  0  0  0  0  0  0  0  0
   17.7640   22.4960   11.0010 C   0  0  0  0  0  0  0  0  0  0  0  0
   18.9870   23.4190   11.1530 C   0  0  0  0  0  0  0  0  0  0  0  0
   17.9160   21.5640    9.7990 C   0  0  0  0  0  0  0  0  0  0  0  0
   19.0120   20.5370    9.9730 C   0  0  0  0  0  0  0  0  0  0  0  0
   19.5670   20.0690    8.9770 O   0  0  0  0  0  0  0  0  0  0  0  0
   19.2980   20.1320   11.2740 N   0  0  0  0  0  0  0  0  0  0  0  0
   18.6540   20.5880   12.4230 C   0  0  0  0  0  0  0  0  0  0  0  0
   18.8920   20.1510   13.5500 O   0  0  0  0  0  0  0  0  0  0  0  0
   17.5670   21.6230   12.2390 C   0  0  0  0  0  0  0  0  0  0  0  0
   19.7180   16.8790   10.3320 C   0  0  0  0  0  0  0  0  0  0  0  0
   20.9260   15.9410   10.1730 C   0  0  0  0  0  0  0  0  0  0  0  0
   22.0980   16.6110    9.5920 N   0  0  0  0  0  0  0  0  0  0  0  0
   23.2630   15.6780    9.5450 C   0  0  0  0  0  0  0  0  0  0  0  0
   23.3540   15.1960    8.1350 C   0  0  0  0  0  0  0  0  0  0  0  0
   24.1230   14.1780    7.5990 C   0  0  0  0  0  0  0  0  0  0  0  0
   24.0460   13.9480    6.2230 C   0  0  0  0  0  0  0  0  0  0  0  0
   23.2150   14.7380    5.4110 C   0  0  0  0  0  0  0  0  0  0  0  0
   22.4520   15.7690    5.9650 C   0  0  0  0  0  0  0  0  0  0  0  0
   22.5300   15.9790    7.3300 C   0  0  0  0  0  0  0  0  0  0  0  0
   21.8550   17.0110    8.1740 C   0  0  0  0  0  0  0  0  0  0  0  0
  2  1  1  0
  3  4  1  0
  4  5  1  0
  4 12  1  0
  6  7  1  0
  6  4  1  0
  7  9  1  0
  8  7  2  0
  9  2  1  0
  9 10  1  0
 10 11  2  0
 12 10  1  0
 13  1  1  0
 14 13  1  0
 15 14  1  0
 16 15  1  0
 17 16  1  0
 18 17  2  0
 19 18  1  0
 20 21  1  0
 20 19  2  0
 21 22  2  0
 22 17  1  0
 22 23  1  0
 23 15  1  0
M  END
$$$$
