lig_018
     RDKit          3D

 41 46  0  0  1  0  0  0  0  0999 V2000
  186.7790  173.2200  173.6790 C   0  0  2  0  0  0  0  0  0  0  0  0
  185.8510  172.3870  172.7670 C   0  0  0  0  0  0  0  0  0  0  0  0
  185.8880  170.9060  173.1420 C   0  0  0  0  0  0  0  0  0  0  0  0
  186.2190  170.6890  174.6030 C   0  0  0  0  0  0  0  0  0  0  0  0
  186.6280  169.5950  175.0000 O   0  0  0  0  0  0  0  0  0  0  0  0
  185.8540  171.7840  175.5850 C   0  0  0  0  0  0  0  0  0  0  0  0
  186.1690  173.2480  175.1360 C   0  0  1  0  0  0  0  0  0  0  0  0
  187.2610  173.9010  176.0400 C   0  0  0  0  0  0  0  0  0  0  0  0
  187.6630  175.3060  175.5530 C   0  0  0  0  0  0  0  0  0  0  0  0
  187.9700  175.3600  174.1220 N   0  0  0  0  0  0  0  0  0  0  0  0
  188.3320  176.7100  173.7040 C   0  0  0  0  0  0  0  0  0  0  0  0
  186.9730  174.6980  173.2390 C   0  0  2  0  0  0  0  0  0  0  0  0
  185.6050  175.3920  173.1220 C   0  0  0  0  0  0  0  0  0  0  0  0
  184.6620  175.1410  174.2730 C   0  0  0  0  0  0  0  0  0  0  0  0
  183.5020  175.9310  174.3220 C   0  0  0  0  0  0  0  0  0  0  0  0
  182.5760  175.7800  175.3490 C   0  0  0  0  0  0  0  0  0  0  0  0
  182.7980  174.8560  176.3720 C   0  0  0  0  0  0  0  0  0  0  0  0
  183.9750  174.0760  176.3360 C   0  0  0  0  0  0  0  0  0  0  0  0
  184.9000  174.1530  175.2580 C   0  0  0  0  0  0  0  0  0  0  0  0
  181.7330  174.7640  177.4280 C   0  0  0  0  0  0  0  0  0  0  0  0
  181.2780  175.7810  177.9450 O   0  0  0  0  0  0  0  0  0  0  0  0
  181.2670  173.5090  177.7410 N   0  0  0  0  0  0  0  0  0  0  0  0
  180.0250  173.2990  178.4580 C   0  0  0  0  0  0  0  0  0  0  0  0
  179.2000  172.1250  177.9070 C   0  0  0  0  0  0  0  0  0  0  0  0
  180.0540  171.0610  177.2540 C   0  0  0  0  0  0  0  0  0  0  0  0
  179.5260  170.2080  176.2780 C   0  0  0  0  0  0  0  0  0  0  0  0
  180.2970  169.1620  175.7610 C   0  0  0  0  0  0  0  0  0  0  0  0
  181.6120  168.9590  176.2050 C   0  0  0  0  0  0  0  0  0  0  0  0
  182.1510  169.8400  177.1490 C   0  0  0  0  0  0  0  0  0  0  0  0
  181.3800  170.8790  177.6700 C   0  0  0  0  0  0  0  0  0  0  0  0
  182.3960  167.8030  175.7510 C   0  0  0  0  0  0  0  0  0  0  0  0
  183.3660  167.9740  174.8400 C   0  0  0  0  0  0  0  0  0  0  0  0
  184.0480  166.9200  174.3010 N   0  0  0  0  0  0  0  0  0  0  0  0
  183.8270  165.6170  174.6510 C   0  0  0  0  0  0  0  0  0  0  0  0
  184.4060  164.6810  174.1100 O   0  0  0  0  0  0  0  0  0  0  0  0
  182.8970  165.4260  175.6330 N   0  0  0  0  0  0  0  0  0  0  0  0
  182.0880  166.3990  176.1600 C   0  0  0  0  0  0  0  0  0  0  0  0
  181.1590  166.1160  176.9090 O   0  0  0  0  0  0  0  0  0  0  0  0
  188.9850  172.7240  172.7130 C   0  0  0  0  0  0  0  0  0  0  0  0
  188.0500  172.5140  173.7620 O   0  0  0  0  0  0  0  0  0  0  0  0
  184.2160  173.2310  177.3920 O   0  0  0  0  0  0  0  0  0  0  0  0
  1 40  1  1
  1  7  1  0
  2  3  1  0
  2  1  1  0
  3  4  1  0
  4  5  2  0
  4  6  1  0
  7 19  1  0
  7  6  1  1
  7  8  1  0
  9  8  1  0
 10  9  1  0
 11 10  1  0
 12 13  1  1
 12  1  1  0
 12 10  1  0
 13 14  1  0
 14 15  1  0
 14 19  2  0
 15 16  2  0
 16 17  1  0
 17 20  1  0
 18 17  2  0
 18 41  1  0
 19 18  1  0
 20 22  1  0
 20 21  2  0
 22 23  1  0
 24 23  1  0
 25 30  2  0
 25 24  1  0
 26 25  1  0
 27 28  1  0
 27 26  2  0
 28 29  2  0
 29 30  1  0
 31 37  1  0
 31 28  1  0
 32 31  2  0
 33 34  1  0
 33 32  1  0
 34 36  1  0
 35 34  2  0
 36 37  1  0
 37 38  2  0
 39 40  1  0
M  END
$$$$
