lig_025
     RDKit          3D

 29 31  0  0  1  0  0  0  0  0999 V2000
  125.4030  136.9910  107.5480 C   0  0  0  0  0  0  0  0  0  0  0  0
  125.1640  139.3610  104.6910 N   0  0  0  0  0  0  0  0  0  0  0  0
  125.4180  139.7610  106.0960 C   0  0  0  0  0  0  0  0  0  0  0  0
  126.5920  138.9560  106.7020 C   0  0  0  0  0  0  0  0  0  0  0  0
  126.4510  137.4810  106.6230 N   0  0  0  0  0  0  0  0  0  0  0  0
  126.1830  137.1160  105.2120 C   0  0  0  0  0  0  0  0  0  0  0  0
  125.0480  137.9040  104.5070 C   0  0  0  0  0  0  0  0  0  0  0  0
  125.4850  141.5370  103.5900 C   0  0  0  0  0  0  0  0  0  0  0  0
  126.1710  142.3650  102.6930 C   0  0  0  0  0  0  0  0  0  0  0  0
  127.1510  141.8340  101.8640 C   0  0  0  0  0  0  0  0  0  0  0  0
  127.4450  140.4780  101.9380 C   0  0  0  0  0  0  0  0  0  0  0  0
  126.7750  139.6570  102.8570 C   0  0  0  0  0  0  0  0  0  0  0  0
  125.7970  140.1620  103.7300 C   0  0  0  0  0  0  0  0  0  0  0  0
  123.4960  142.7130  103.4690 C   0  0  0  0  0  0  0  0  0  0  0  0
  124.5030  142.1670  104.3220 O   0  0  0  0  0  0  0  0  0  0  0  0
  125.4240  137.7300  108.9090 C   0  0  2  0  0  0  0  0  0  0  0  0
  125.8720  136.7800  110.0170 C   0  0  0  0  0  0  0  0  0  0  0  0
  125.9230  137.1980  111.3560 C   0  0  0  0  0  0  0  0  0  0  0  0
  126.3310  136.3170  112.3590 C   0  0  0  0  0  0  0  0  0  0  0  0
  126.6850  135.0090  112.0370 C   0  0  0  0  0  0  0  0  0  0  0  0
  126.6320  134.5790  110.7120 C   0  0  0  0  0  0  0  0  0  0  0  0
  126.2260  135.4570  109.7070 C   0  0  0  0  0  0  0  0  0  0  0  0
  124.0580  138.3540  109.2480 C   0  0  0  0  0  0  0  0  0  0  0  0
  123.0210  137.7040  109.3420 O   0  0  0  0  0  0  0  0  0  0  0  0
  124.1310  139.7190  109.4830 N   0  0  0  0  0  0  0  0  0  0  0  0
  123.0060  140.5470  109.9430 C   0  0  0  0  0  0  0  0  0  0  0  0
  121.8330  140.5010  108.9490 C   0  0  0  0  0  0  0  0  0  0  0  0
  123.4980  142.0030  110.0340 C   0  0  0  0  0  0  0  0  0  0  0  0
  122.5380  140.1010  111.3370 C   0  0  0  0  0  0  0  0  0  0  0  0
  2  3  1  0
  3  4  1  0
  5  4  1  0
  5  1  1  0
  6  5  1  0
  7  2  1  0
  7  6  1  0
  8 13  1  0
  8 15  1  0
  9  8  2  0
 10 11  2  0
 10  9  1  0
 11 12  1  0
 12 13  2  0
 13  2  1  0
 14 15  1  0
 16  1  1  6
 16 23  1  0
 16 17  1  0
 17 18  2  0
 18 19  1  0
 20 19  2  0
 21 20  1  0
 22 17  1  0
 22 21  2  0
 23 24  2  0
 23 25  1  0
 25 26  1  0
 26 28  1  0
 26 29  1  0
 27 26  1  0
M  END
$$$$
