lig_276
     RDKit          3D

 27 30  0  0  0  0  0  0  0  0999 V2000
   -0.2770   14.1130   16.0580 C   0  0  0  0  0  0  0  0  0  0  0  0
    0.9020   14.3120   15.7720 O   0  0  0  0  0  0  0  0  0  0  0  0
   -0.8630   12.8620   15.9200 N   0  0  0  0  0  0  0  0  0  0  0  0
   -0.0440   11.7350   15.4630 C   0  0  0  0  0  0  0  0  0  0  0  0
   -0.3730   10.4320   16.2080 C   0  0  0  0  0  0  0  0  0  0  0  0
   -1.8050   10.1040   16.1590 N   0  0  0  0  0  0  0  0  0  0  0  0
   -2.2580    8.8240   16.4020 C   0  0  0  0  0  0  0  0  0  0  0  0
   -1.3220    7.8910   16.8230 N   0  0  0  0  0  0  0  0  0  0  0  0
   -1.6930    6.6670   17.0480 C   0  0  0  0  0  0  0  0  0  0  0  0
   -0.8120    5.6960   17.4620 N   0  0  0  0  0  0  0  0  0  0  0  0
   -3.0310    6.3440   16.8780 N   0  0  0  0  0  0  0  0  0  0  0  0
   -3.5840    5.1400   17.1260 N   0  0  0  0  0  0  0  0  0  0  0  0
   -4.8660    5.4090   16.8230 C   0  0  0  0  0  0  0  0  0  0  0  0
   -5.1140    6.7070   16.4320 N   0  0  0  0  0  0  0  0  0  0  0  0
   -3.9320    7.2790   16.4830 C   0  0  0  0  0  0  0  0  0  0  0  0
   -3.5260    8.5440   16.2330 N   0  0  0  0  0  0  0  0  0  0  0  0
   -2.7210   11.1770   15.7540 C   0  0  0  0  0  0  0  0  0  0  0  0
   -2.2510   12.5470   16.2750 C   0  0  0  0  0  0  0  0  0  0  0  0
   -6.0000    4.3330   16.9130 C   0  0  0  0  0  0  0  0  0  0  0  0
   -7.1720    4.4520   17.6370 C   0  0  0  0  0  0  0  0  0  0  0  0
   -7.9000    3.2540   17.4350 C   0  0  0  0  0  0  0  0  0  0  0  0
   -7.1290    2.4770   16.6020 C   0  0  0  0  0  0  0  0  0  0  0  0
   -5.9790    3.1210   16.2800 O   0  0  0  0  0  0  0  0  0  0  0  0
   -1.1710   15.2230   16.6010 C   0  0  0  0  0  0  0  0  0  0  0  0
   -1.6380   16.2180   15.5360 C   0  0  0  0  0  0  0  0  0  0  0  0
   -3.2270   15.1590   13.8360 C   0  0  0  0  0  0  0  0  0  0  0  0
   -3.0870   16.0370   15.0710 C   0  0  0  0  0  0  0  0  0  0  0  0
  1 24  1  0
  2  1  2  0
  3  1  1  0
  3 18  1  0
  4  3  1  0
  4  5  1  0
  6  5  1  0
  6  7  1  0
  7  8  1  0
  8  9  2  0
  9 10  1  0
 11  9  1  0
 11 12  1  0
 13 19  1  0
 13 12  2  0
 14 15  2  0
 14 13  1  0
 15 11  1  0
 16  7  2  0
 16 15  1  0
 17  6  1  0
 17 18  1  0
 19 20  2  0
 21 20  1  0
 22 21  2  0
 23 22  1  0
 23 19  1  0
 25 24  1  0
 26 27  1  0
 27 25  1  0
M  END
$$$$
