lig_459
     RDKit          3D

 29 33  0  0  0  0  0  0  0  0999 V2000
   -0.4690    6.3930   17.2160 C   0  0  0  0  0  0  0  0  0  0  0  0
   -1.2660    7.5750   16.7640 C   0  0  0  0  0  0  0  0  0  0  0  0
   -0.7260    8.7160   16.4540 N   0  0  0  0  0  0  0  0  0  0  0  0
   -1.5800    9.7430   16.0460 C   0  0  0  0  0  0  0  0  0  0  0  0
   -0.9220   11.0600   15.7020 C   0  0  0  0  0  0  0  0  0  0  0  0
    0.2980   11.1900   15.7880 O   0  0  0  0  0  0  0  0  0  0  0  0
   -1.7660   12.0800   15.2900 N   0  0  0  0  0  0  0  0  0  0  0  0
   -3.1290   11.9580   15.1860 N   0  0  0  0  0  0  0  0  0  0  0  0
   -3.6700   10.8240   15.4930 C   0  0  0  0  0  0  0  0  0  0  0  0
   -5.3920   10.8470   15.3080 Cl  0  0  0  0  0  0  0  0  0  0  0  0
   -2.9230    9.6230   15.9520 C   0  0  0  0  0  0  0  0  0  0  0  0
   -3.5190    8.3700   16.2910 C   0  0  0  0  0  0  0  0  0  0  0  0
   -4.7650    7.7870   16.3560 C   0  0  0  0  0  0  0  0  0  0  0  0
   -4.5600    6.4480   16.7990 C   0  0  0  0  0  0  0  0  0  0  0  0
   -3.2520    6.2220   16.9970 N   0  0  0  0  0  0  0  0  0  0  0  0
   -2.6460    7.3840   16.6900 N   0  0  0  0  0  0  0  0  0  0  0  0
   -5.5650    5.4010   17.0340 C   0  0  0  0  0  0  0  0  0  0  0  0
   -5.5060    4.1880   16.3280 C   0  0  0  0  0  0  0  0  0  0  0  0
   -6.4540    3.1850   16.5400 C   0  0  0  0  0  0  0  0  0  0  0  0
   -7.4770    3.3770   17.4640 C   0  0  0  0  0  0  0  0  0  0  0  0
   -7.5520    4.5730   18.1740 C   0  0  0  0  0  0  0  0  0  0  0  0
   -6.6030    5.5790   17.9610 C   0  0  0  0  0  0  0  0  0  0  0  0
   -1.2130   13.4040   15.0170 C   0  0  0  0  0  0  0  0  0  0  0  0
   -1.6420   14.4170   16.0520 C   0  0  0  0  0  0  0  0  0  0  0  0
   -2.0220   15.7110   15.6680 C   0  0  0  0  0  0  0  0  0  0  0  0
   -2.4000   16.6530   16.6270 C   0  0  0  0  0  0  0  0  0  0  0  0
   -2.3940   16.3130   17.9780 C   0  0  0  0  0  0  0  0  0  0  0  0
   -2.0060   15.0340   18.3740 C   0  0  0  0  0  0  0  0  0  0  0  0
   -1.6270   14.0920   17.4160 C   0  0  0  0  0  0  0  0  0  0  0  0
  2  1  1  0
  3  2  2  0
  4  3  1  0
  5  6  2  0
  5  4  1  0
  7  5  1  0
  8  7  1  0
  8  9  2  0
  9 11  1  0
 10  9  1  0
 11  4  2  0
 11 12  1  0
 12 13  2  0
 12 16  1  0
 13 14  1  0
 14 15  2  0
 14 17  1  0
 16  2  1  0
 16 15  1  0
 17 22  1  0
 18 19  1  0
 18 17  2  0
 19 20  2  0
 20 21  1  0
 22 21  2  0
 23  7  1  0
 23 24  1  0
 24 29  1  0
 25 24  2  0
 25 26  1  0
 26 27  2  0
 27 28  1  0
 29 28  2  0
M  END
$$$$
