lig_002
     RDKit          3D

 28 32  0  0  0  0  0  0  0  0999 V2000
   10.6600    7.3780   -9.8780 N   0  0  0  0  0  0  0  0  0  0  0  0
   10.6980    7.6790  -11.3220 C   0  0  0  0  0  0  0  0  0  0  0  0
   10.6400    6.4180  -12.2110 C   0  0  0  0  0  0  0  0  0  0  0  0
    9.3590    5.7280  -11.9870 N   0  0  0  0  0  0  0  0  0  0  0  0
    8.9150    5.6230  -10.5840 C   0  0  0  0  0  0  0  0  0  0  0  0
    9.9850    6.1040   -9.5720 C   0  0  0  0  0  0  0  0  0  0  0  0
    9.1610    4.5780  -12.7730 C   0  0  0  0  0  0  0  0  0  0  0  0
   10.3140    4.0050  -13.3450 C   0  0  0  0  0  0  0  0  0  0  0  0
   10.2550    2.8710  -14.1440 C   0  0  0  0  0  0  0  0  0  0  0  0
    9.0320    2.2630  -14.4050 C   0  0  0  0  0  0  0  0  0  0  0  0
    7.8660    2.8170  -13.8460 C   0  0  0  0  0  0  0  0  0  0  0  0
    6.2570    2.2200  -14.0490 S   0  0  0  0  0  0  0  0  0  0  0  0
    5.6190    3.4460  -13.0880 C   0  0  0  0  0  0  0  0  0  0  0  0
    4.3110    3.5770  -12.8150 F   0  0  0  0  0  0  0  0  0  0  0  0
    6.5660    4.3060  -12.6070 C   0  0  0  0  0  0  0  0  0  0  0  0
    7.8990    3.9610  -13.0350 C   0  0  0  0  0  0  0  0  0  0  0  0
   10.2320    8.5160   -9.0570 C   0  0  0  0  0  0  0  0  0  0  0  0
   11.3260    9.2280   -8.2410 C   0  0  0  0  0  0  0  0  0  0  0  0
   12.9710    8.4220   -1.2590 O   0  0  0  0  0  0  0  0  0  0  0  0
   12.5730    8.3440   -2.4080 C   0  0  0  0  0  0  0  0  0  0  0  0
   11.7760    7.3260   -2.9510 N   0  0  0  0  0  0  0  0  0  0  0  0
   11.5440    7.6090   -4.2930 C   0  0  0  0  0  0  0  0  0  0  0  0
   10.8220    6.9080   -5.2260 C   0  0  0  0  0  0  0  0  0  0  0  0
   10.7660    7.4520   -6.5150 C   0  0  0  0  0  0  0  0  0  0  0  0
   11.4290    8.6670   -6.8390 C   0  0  0  0  0  0  0  0  0  0  0  0
   12.1550    9.3600   -5.8550 C   0  0  0  0  0  0  0  0  0  0  0  0
   12.1920    8.8030   -4.5980 C   0  0  0  0  0  0  0  0  0  0  0  0
   12.8240    9.2550   -3.4440 N   0  0  0  0  0  0  0  0  0  0  0  0
  1  6  1  0
  1 17  1  0
  2  1  1  0
  3  4  1  0
  3  2  1  0
  4  5  1  0
  5  6  1  0
  7  4  1  0
  8  7  1  0
  9  8  2  0
 10  9  1  0
 10 11  2  0
 11 16  1  0
 12 11  1  0
 12 13  1  0
 13 14  1  0
 13 15  2  0
 16  7  2  0
 16 15  1  0
 17 18  1  0
 18 25  1  0
 20 19  2  0
 21 20  1  0
 22 21  1  0
 23 22  1  0
 24 23  2  0
 25 24  1  0
 25 26  2  0
 26 27  1  0
 27 22  2  0
 27 28  1  0
 28 20  1  0
M  END
$$$$
