lig_015
     RDKit          3D

 31 35  0  0  0  0  0  0  0  0999 V2000
  124.8630  135.7380  105.7310 C   0  0  0  0  0  0  0  0  0  0  0  0
  124.2630  136.0880  107.0260 N   0  0  0  0  0  0  0  0  0  0  0  0
  125.2650  136.2990  108.1000 C   0  0  0  0  0  0  0  0  0  0  0  0
  125.4040  137.7580  108.5960 C   0  0  0  0  0  0  0  0  0  0  0  0
  124.1050  138.2560  109.0730 N   0  0  0  0  0  0  0  0  0  0  0  0
  122.9390  137.8770  108.2410 C   0  0  0  0  0  0  0  0  0  0  0  0
  123.3720  137.2630  106.8890 C   0  0  0  0  0  0  0  0  0  0  0  0
  124.0330  139.5610  109.5930 C   0  0  0  0  0  0  0  0  0  0  0  0
  123.7810  140.6620  108.7570 C   0  0  0  0  0  0  0  0  0  0  0  0
  123.6600  141.9510  109.2730 C   0  0  0  0  0  0  0  0  0  0  0  0
  123.7820  142.1670  110.6400 C   0  0  0  0  0  0  0  0  0  0  0  0
  124.0390  141.1020  111.5120 C   0  0  0  0  0  0  0  0  0  0  0  0
  124.1690  141.3360  112.8920 C   0  0  0  0  0  0  0  0  0  0  0  0
  124.4410  140.2920  113.7750 C   0  0  0  0  0  0  0  0  0  0  0  0
  124.5950  139.0000  113.2880 C   0  0  0  0  0  0  0  0  0  0  0  0
  124.4660  138.7560  111.9190 C   0  0  0  0  0  0  0  0  0  0  0  0
  124.1730  139.7870  110.9970 C   0  0  0  0  0  0  0  0  0  0  0  0
  126.3850  135.9410  105.7410 C   0  0  0  0  0  0  0  0  0  0  0  0
  126.8070  137.1130  104.8560 C   0  0  0  0  0  0  0  0  0  0  0  0
  126.5770  138.3360  105.5540 O   0  0  0  0  0  0  0  0  0  0  0  0
  123.4240  139.3810  101.2140 O   0  0  0  0  0  0  0  0  0  0  0  0
  123.5900  140.2690  102.0250 C   0  0  0  0  0  0  0  0  0  0  0  0
  123.0710  141.5440  101.9880 N   0  0  0  0  0  0  0  0  0  0  0  0
  123.4700  142.3530  103.1150 C   0  0  0  0  0  0  0  0  0  0  0  0
  124.3290  141.4150  103.8920 C   0  0  0  0  0  0  0  0  0  0  0  0
  125.0070  141.6090  105.0790 C   0  0  0  0  0  0  0  0  0  0  0  0
  125.7460  140.5350  105.5870 C   0  0  0  0  0  0  0  0  0  0  0  0
  126.4120  140.7180  106.7380 F   0  0  0  0  0  0  0  0  0  0  0  0
  125.8140  139.2860  104.9290 C   0  0  0  0  0  0  0  0  0  0  0  0
  125.1230  139.1040  103.7300 C   0  0  0  0  0  0  0  0  0  0  0  0
  124.3990  140.1810  103.2450 C   0  0  0  0  0  0  0  0  0  0  0  0
  1 18  1  0
  1  2  1  0
  2  3  1  0
  3  4  1  0
  4  5  1  0
  5  8  1  0
  6  5  1  0
  7  2  1  0
  7  6  1  0
  8 17  1  0
  9 10  1  0
  9  8  2  0
 10 11  2  0
 11 12  1  0
 12 13  2  0
 13 14  1  0
 15 14  2  0
 16 15  1  0
 17 12  1  0
 17 16  2  0
 19 20  1  0
 19 18  1  0
 21 22  2  0
 22 31  1  0
 23 22  1  0
 23 24  1  0
 24 25  1  0
 25 26  1  0
 26 27  2  0
 27 28  1  0
 29 20  1  0
 29 27  1  0
 30 29  2  0
 31 30  1  0
 31 25  2  0
M  END
$$$$
