lig_443
     RDKit          3D

 30 33  0  0  1  0  0  0  0  0999 V2000
   -2.4750    4.9750   17.8770 C   0  0  0  0  0  0  0  0  0  0  0  0
   -1.2290    5.5970   17.9920 C   0  0  0  0  0  0  0  0  0  0  0  0
   -0.9140    6.8340   17.5430 N   0  0  0  0  0  0  0  0  0  0  0  0
   -1.9560    7.4420   16.9440 C   0  0  0  0  0  0  0  0  0  0  0  0
   -3.2390    6.9380   16.7830 C   0  0  0  0  0  0  0  0  0  0  0  0
   -3.9340    7.9810   16.1290 C   0  0  0  0  0  0  0  0  0  0  0  0
   -3.1740    9.0560   15.8990 N   0  0  0  0  0  0  0  0  0  0  0  0
   -1.9590    8.6830   16.3620 N   0  0  0  0  0  0  0  0  0  0  0  0
   -3.5490    5.6400   17.2510 C   0  0  0  0  0  0  0  0  0  0  0  0
   -4.8300    5.1400   17.0520 N   0  0  0  0  0  0  0  0  0  0  0  0
   -5.8640    5.6520   17.9790 C   0  0  0  0  0  0  0  0  0  0  0  0
   -6.8640    4.5530   18.4120 C   0  0  0  0  0  0  0  0  0  0  0  0
   -7.4550    3.8140   17.2770 N   0  0  0  0  0  0  0  0  0  0  0  0
   -8.2320    2.6720   17.7470 C   0  0  0  0  0  0  0  0  0  0  0  0
   -6.4290    3.4160   16.2860 C   0  0  0  0  0  0  0  0  0  0  0  0
   -4.9620    3.7250   16.6760 C   0  0  0  0  0  0  0  0  0  0  0  0
   -2.6140    3.6470   18.4960 C   0  0  0  0  0  0  0  0  0  0  0  0
   -3.3160    3.3910   19.4570 O   0  0  0  0  0  0  0  0  0  0  0  0
   -1.8370    2.7710   17.8070 O   0  0  0  0  0  0  0  0  0  0  0  0
    0.1630    2.2670   19.0110 C   0  0  0  0  0  0  0  0  0  0  0  0
   -1.2170    1.7710   18.6250 C   0  0  0  0  0  0  0  0  0  0  0  0
   -0.8510    9.6120   16.3200 C   0  0  0  0  0  0  0  0  0  0  0  0
   -0.8990   10.6800   15.2190 C   0  0  1  0  0  0  0  0  0  0  0  0
   -1.4580   10.0430   13.6380 Cl  0  0  0  0  0  0  0  0  0  0  0  0
   -1.6350   11.9570   15.5820 C   0  0  0  0  0  0  0  0  0  0  0  0
   -1.9200   12.3050   16.9110 C   0  0  0  0  0  0  0  0  0  0  0  0
   -2.5870   13.4950   17.2130 C   0  0  0  0  0  0  0  0  0  0  0  0
   -2.9800   14.3550   16.1910 C   0  0  0  0  0  0  0  0  0  0  0  0
   -2.7050   14.0280   14.8670 C   0  0  0  0  0  0  0  0  0  0  0  0
   -2.0350   12.8400   14.5640 C   0  0  0  0  0  0  0  0  0  0  0  0
  1  2  1  0
  1 17  1  0
  3  2  2  0
  4  3  1  0
  5  4  2  0
  5  9  1  0
  6  5  1  0
  7  6  2  0
  7  8  1  0
  8  4  1  0
  9  1  2  0
 10  9  1  0
 10 11  1  0
 11 12  1  0
 13 14  1  0
 13 12  1  0
 15 16  1  0
 15 13  1  0
 16 10  1  0
 17 18  2  0
 19 17  1  0
 19 21  1  0
 21 20  1  0
 22  8  1  0
 23 24  1  6
 23 25  1  0
 23 22  1  0
 25 26  2  0
 26 27  1  0
 28 27  2  0
 29 28  1  0
 30 29  2  0
 30 25  1  0
M  END
$$$$
