lig_248
     RDKit          3D

 22 24  0  0  0  0  0  0  0  0999 V2000
   -0.1960    6.8240   16.6540 O   0  0  0  0  0  0  0  0  0  0  0  0
   -1.0960    7.6410   16.7910 C   0  0  0  0  0  0  0  0  0  0  0  0
   -2.4550    7.3520   16.9100 N   0  0  0  0  0  0  0  0  0  0  0  0
   -3.1650    6.1680   16.9030 C   0  0  0  0  0  0  0  0  0  0  0  0
   -4.4350    6.3220   17.0520 N   0  0  0  0  0  0  0  0  0  0  0  0
   -5.3130    5.2330   17.0720 C   0  0  0  0  0  0  0  0  0  0  0  0
   -6.6270    5.4760   17.4920 C   0  0  0  0  0  0  0  0  0  0  0  0
   -7.5840    4.4580   17.4960 C   0  0  0  0  0  0  0  0  0  0  0  0
   -7.2390    3.1790   17.0690 C   0  0  0  0  0  0  0  0  0  0  0  0
   -5.9360    2.9210   16.6440 C   0  0  0  0  0  0  0  0  0  0  0  0
   -4.9760    3.9470   16.6550 C   0  0  0  0  0  0  0  0  0  0  0  0
   -3.6100    3.6520   16.2100 C   0  0  0  0  0  0  0  0  0  0  0  0
   -3.3840    2.6540   15.5360 O   0  0  0  0  0  0  0  0  0  0  0  0
   -2.3110    4.6830   16.7310 S   0  0  0  0  0  0  0  0  0  0  0  0
   -0.8430    9.1350   16.8560 C   0  0  0  0  0  0  0  0  0  0  0  0
   -1.2640    9.8410   15.5700 C   0  0  0  0  0  0  0  0  0  0  0  0
   -2.5850   10.5490   15.7460 C   0  0  0  0  0  0  0  0  0  0  0  0
   -3.7890    9.8820   15.4810 C   0  0  0  0  0  0  0  0  0  0  0  0
   -5.0090   10.5450   15.6220 C   0  0  0  0  0  0  0  0  0  0  0  0
   -5.0370   11.8780   16.0260 C   0  0  0  0  0  0  0  0  0  0  0  0
   -3.8460   12.5510   16.2890 C   0  0  0  0  0  0  0  0  0  0  0  0
   -2.6240   11.8900   16.1490 C   0  0  0  0  0  0  0  0  0  0  0  0
  1  2  2  0
  2 15  1  0
  2  3  1  0
  4  3  1  0
  4  5  2  0
  5  6  1  0
  6  7  2  0
  7  8  1  0
  9  8  2  0
 10 11  2  0
 10  9  1  0
 11  6  1  0
 12 11  1  0
 12 14  1  0
 13 12  2  0
 14  4  1  0
 16 17  1  0
 16 15  1  0
 17 22  1  0
 18 19  1  0
 18 17  2  0
 19 20  2  0
 20 21  1  0
 22 21  2  0
M  END
$$$$
