lig_080
     RDKit          3D

 27 29  0  0  1  0  0  0  0  0999 V2000
   -0.5540  -18.8270   12.1180 N   0  0  0  0  0  0  0  0  0  0  0  0
   -0.8730  -20.2240   12.5160 C   0  0  1  0  0  0  0  0  0  0  0  0
   -0.3050  -21.3200   11.5690 C   0  0  0  0  0  0  0  0  0  0  0  0
   -0.8510  -22.7170   11.9210 C   0  0  0  0  0  0  0  0  0  0  0  0
   -0.8130  -22.9610   13.3890 C   0  0  0  0  0  0  0  0  0  0  0  0
   -0.9540  -24.2270   13.9130 N   0  0  0  0  0  0  0  0  0  0  0  0
   -0.9110  -24.1670   15.2230 C   0  0  0  0  0  0  0  0  0  0  0  0
   -1.0120  -25.2530   16.0100 N   0  0  0  0  0  0  0  0  0  0  0  0
   -0.6860  -22.5960   15.8910 S   0  0  0  0  0  0  0  0  0  0  0  0
   -0.6660  -21.9520   14.3170 C   0  0  0  0  0  0  0  0  0  0  0  0
   -0.4720  -20.5060   14.0010 C   0  0  0  0  0  0  0  0  0  0  0  0
    0.1310  -18.7250   10.8100 C   0  0  0  0  0  0  0  0  0  0  0  0
   -1.1350  -18.9820    8.6040 C   0  0  0  0  0  0  0  0  0  0  0  0
   -0.6750  -18.0300    9.6990 C   0  0  0  0  0  0  0  0  0  0  0  0
    0.1910  -18.0860   13.1570 C   0  0  0  0  0  0  0  0  0  0  0  0
    0.7130  -16.7060   12.7170 C   0  0  0  0  0  0  0  0  0  0  0  0
   -0.2990  -15.5560   12.7870 C   0  0  0  0  0  0  0  0  0  0  0  0
   -0.1770  -14.4850   11.7010 C   0  0  0  0  0  0  0  0  0  0  0  0
    0.6380  -14.9310   10.4860 C   0  0  0  0  0  0  0  0  0  0  0  0
    0.6660  -13.8640    9.4180 C   0  0  0  0  0  0  0  0  0  0  0  0
    0.0020  -12.6490    9.6660 C   0  0  0  0  0  0  0  0  0  0  0  0
   -0.0080  -11.6380    8.7100 C   0  0  0  0  0  0  0  0  0  0  0  0
    0.6350  -11.8040    7.4900 C   0  0  0  0  0  0  0  0  0  0  0  0
    1.2900  -13.0050    7.2270 C   0  0  0  0  0  0  0  0  0  0  0  0
    1.2990  -14.0260    8.1790 C   0  0  0  0  0  0  0  0  0  0  0  0
   -0.6680  -10.4840    9.0140 O   0  0  0  0  0  0  0  0  0  0  0  0
    1.9520  -15.1700    7.8170 O   0  0  0  0  0  0  0  0  0  0  0  0
  1 15  1  0
  2  1  1  6
  2 11  1  0
  3  4  1  0
  3  2  1  0
  4  5  1  0
  5  6  1  0
  5 10  2  0
  6  7  2  0
  7  9  1  0
  7  8  1  0
 10  9  1  0
 11 10  1  0
 12  1  1  0
 13 14  1  0
 14 12  1  0
 16 17  1  0
 16 15  1  0
 18 17  1  0
 19 18  1  0
 20 21  1  0
 20 19  1  0
 22 26  1  0
 22 21  2  0
 23 22  1  0
 24 23  2  0
 24 25  1  0
 25 20  2  0
 27 25  1  0
M  END
$$$$
