lig_003
     RDKit          3D

 29 33  0  0  0  0  0  0  0  0999 V2000
  125.7070  138.3230  105.4030 N   0  0  0  0  0  0  0  0  0  0  0  0
  124.5680  137.3970  105.3150 C   0  0  0  0  0  0  0  0  0  0  0  0
  125.0510  135.9380  105.5100 C   0  0  0  0  0  0  0  0  0  0  0  0
  125.8660  135.6930  106.7290 N   0  0  0  0  0  0  0  0  0  0  0  0
  126.9850  136.6710  106.7310 C   0  0  0  0  0  0  0  0  0  0  0  0
  126.5730  138.1560  106.5800 C   0  0  0  0  0  0  0  0  0  0  0  0
  126.9280  141.7910  101.6490 C   0  0  0  0  0  0  0  0  0  0  0  0
  127.3170  140.4750  101.8400 C   0  0  0  0  0  0  0  0  0  0  0  0
  126.8380  139.7600  102.9410 C   0  0  0  0  0  0  0  0  0  0  0  0
  125.9550  140.3320  103.8920 C   0  0  0  0  0  0  0  0  0  0  0  0
  125.4330  139.6530  105.0370 C   0  0  0  0  0  0  0  0  0  0  0  0
  124.5620  140.3400  105.9030 C   0  0  0  0  0  0  0  0  0  0  0  0
  124.1990  141.6610  105.6730 C   0  0  0  0  0  0  0  0  0  0  0  0
  124.7020  142.3270  104.5630 C   0  0  0  0  0  0  0  0  0  0  0  0
  125.5730  141.6840  103.6720 C   0  0  0  0  0  0  0  0  0  0  0  0
  126.0620  142.3920  102.5590 C   0  0  0  0  0  0  0  0  0  0  0  0
  125.0360  135.7590  107.9410 C   0  0  0  0  0  0  0  0  0  0  0  0
  125.8270  135.6630  109.2490 C   0  0  0  0  0  0  0  0  0  0  0  0
  125.6630  136.8930  110.1400 C   0  0  0  0  0  0  0  0  0  0  0  0
  124.6560  137.7200  109.5520 O   0  0  0  0  0  0  0  0  0  0  0  0
  124.3870  138.9090  110.1750 C   0  0  0  0  0  0  0  0  0  0  0  0
  123.8430  140.0520  109.5650 C   0  0  0  0  0  0  0  0  0  0  0  0
  123.6050  141.2160  110.3080 C   0  0  0  0  0  0  0  0  0  0  0  0
  123.9280  141.2160  111.6510 C   0  0  0  0  0  0  0  0  0  0  0  0
  124.4660  140.0880  112.2600 C   0  0  0  0  0  0  0  0  0  0  0  0
  124.6970  138.9280  111.5400 C   0  0  0  0  0  0  0  0  0  0  0  0
  124.6760  140.3630  113.7090 C   0  0  0  0  0  0  0  0  0  0  0  0
  124.5350  141.8360  113.8550 N   0  0  0  0  0  0  0  0  0  0  0  0
  123.7570  142.2900  112.6720 C   0  0  0  0  0  0  0  0  0  0  0  0
  1  6  1  0
  2  1  1  0
  2  3  1  0
  3  4  1  0
  4  5  1  0
  4 17  1  0
  6  5  1  0
  7  8  2  0
  7 16  1  0
  8  9  1  0
  9 10  2  0
 10 11  1  0
 11  1  1  0
 11 12  2  0
 13 12  1  0
 14 13  2  0
 15 10  1  0
 15 14  1  0
 16 15  2  0
 17 18  1  0
 18 19  1  0
 20 19  1  0
 20 21  1  0
 21 26  2  0
 22 21  1  0
 22 23  2  0
 23 24  1  0
 24 25  2  0
 24 29  1  0
 25 27  1  0
 26 25  1  0
 27 28  1  0
 29 28  1  0
M  END
$$$$
