lig_049
     RDKit          3D

 31 34  0  0  0  0  0  0  0  0999 V2000
   18.7920   20.2110   11.6040 C   0  0  0  0  0  0  0  0  0  0  0  0
   18.2210   19.1830   10.8590 C   0  0  0  0  0  0  0  0  0  0  0  0
   19.0290   18.2120   10.2420 C   0  0  0  0  0  0  0  0  0  0  0  0
   20.4250   18.2430   10.3440 C   0  0  0  0  0  0  0  0  0  0  0  0
   20.9910   19.2790   11.0990 C   0  0  0  0  0  0  0  0  0  0  0  0
   20.1850   20.2310   11.7360 C   0  0  0  0  0  0  0  0  0  0  0  0
   21.2510   17.2720    9.7110 N   0  0  0  0  0  0  0  0  0  0  0  0
   21.7210   16.0900   10.4110 C   0  0  0  0  0  0  0  0  0  0  0  0
   22.5340   15.3810    9.3850 C   0  0  0  0  0  0  0  0  0  0  0  0
   23.2130   14.1820    9.5030 C   0  0  0  0  0  0  0  0  0  0  0  0
   23.9160   13.6990    8.3920 C   0  0  0  0  0  0  0  0  0  0  0  0
   24.7150   12.1770    8.5950 Cl  0  0  0  0  0  0  0  0  0  0  0  0
   23.9550   14.4140    7.1690 C   0  0  0  0  0  0  0  0  0  0  0  0
   24.7010   13.8760    5.9720 C   0  0  0  0  0  0  0  0  0  0  0  0
   23.2280   15.6270    7.0700 C   0  0  0  0  0  0  0  0  0  0  0  0
   23.1840   16.5040    5.5810 Cl  0  0  0  0  0  0  0  0  0  0  0  0
   22.5400   16.0890    8.1870 C   0  0  0  0  0  0  0  0  0  0  0  0
   21.7170   17.3000    8.3890 C   0  0  0  0  0  0  0  0  0  0  0  0
   21.5260   18.1290    7.5210 O   0  0  0  0  0  0  0  0  0  0  0  0
   17.5010   20.9070   13.4790 C   0  0  0  0  0  0  0  0  0  0  0  0
   18.1010   21.2140   12.2280 O   0  0  0  0  0  0  0  0  0  0  0  0
   20.8270   21.2280   12.4310 O   0  0  0  0  0  0  0  0  0  0  0  0
   22.1780   20.8380   12.7290 C   0  0  0  0  0  0  0  0  0  0  0  0
   22.4620   21.1990   14.1970 C   0  0  0  0  0  0  0  0  0  0  0  0
   22.6040   20.0380   15.0960 N   0  0  0  0  0  0  0  0  0  0  0  0
   23.5970   20.2840   16.1560 C   0  0  0  0  0  0  0  0  0  0  0  0
   24.1100   18.9900   16.7870 C   0  0  0  0  0  0  0  0  0  0  0  0
   24.8260   18.1010   15.7580 C   0  0  0  0  0  0  0  0  0  0  0  0
   26.3450   18.2670   15.8280 C   0  0  0  0  0  0  0  0  0  0  0  0
   24.3230   18.3760   14.3320 C   0  0  0  0  0  0  0  0  0  0  0  0
   22.8560   18.8000   14.3380 C   0  0  0  0  0  0  0  0  0  0  0  0
  1  6  2  0
  1 21  1  0
  2  1  1  0
  3  4  1  0
  3  2  2  0
  4  5  2  0
  5  6  1  0
  6 22  1  0
  7  4  1  0
  7  8  1  0
  9 10  1  0
  9  8  1  0
 11 12  1  0
 11 10  2  0
 13 11  1  0
 14 13  1  0
 15 13  2  0
 15 17  1  0
 16 15  1  0
 17 18  1  0
 17  9  2  0
 18  7  1  0
 19 18  2  0
 21 20  1  0
 22 23  1  0
 23 24  1  0
 24 25  1  0
 25 26  1  0
 26 27  1  0
 28 29  1  0
 28 27  1  0
 30 31  1  0
 30 28  1  0
 31 25  1  0
M  END
$$$$
