lig_439
     RDKit          3D

 23 26  0  0  1  0  0  0  0  0999 V2000
    1.2940  -23.1550   14.2190 C   0  0  0  0  0  0  0  0  0  0  0  0
    0.9700  -21.8750   13.5130 C   0  0  0  0  0  0  0  0  0  0  0  0
    0.2190  -21.9570   12.2810 C   0  0  0  0  0  0  0  0  0  0  0  0
   -0.1040  -20.8510   11.6000 C   0  0  0  0  0  0  0  0  0  0  0  0
    0.3120  -19.5150   12.1090 C   0  0  0  0  0  0  0  0  0  0  0  0
   -0.0180  -18.4610   11.4270 N   0  0  0  0  0  0  0  0  0  0  0  0
    0.3850  -17.2370   11.9100 C   0  0  0  0  0  0  0  0  0  0  0  0
    1.0740  -17.0860   13.0460 C   0  0  0  0  0  0  0  0  0  0  0  0
    1.4390  -18.2790   13.8260 C   0  0  0  0  0  0  0  0  0  0  0  0
    2.0650  -18.1260   14.8760 O   0  0  0  0  0  0  0  0  0  0  0  0
    1.0310  -19.4920   13.2970 N   0  0  0  0  0  0  0  0  0  0  0  0
    1.3430  -20.6680   13.9700 C   0  0  0  0  0  0  0  0  0  0  0  0
   -0.0080  -16.0380   11.0670 C   0  0  0  0  0  0  0  0  0  0  0  0
    1.1650  -15.2030   10.7990 N   0  0  0  0  0  0  0  0  0  0  0  0
    0.9680  -14.2970    9.6640 C   0  0  2  0  0  0  0  0  0  0  0  0
    0.2310  -13.0280   10.0400 C   0  0  0  0  0  0  0  0  0  0  0  0
   -0.8190  -12.8970   10.9300 C   0  0  0  0  0  0  0  0  0  0  0  0
   -1.2750  -11.5520   11.0470 C   0  0  0  0  0  0  0  0  0  0  0  0
   -0.5590  -10.6950   10.2450 C   0  0  0  0  0  0  0  0  0  0  0  0
    0.6560  -11.5070    9.3600 S   0  0  0  0  0  0  0  0  0  0  0  0
    0.2670  -15.1100    8.5960 C   0  0  0  0  0  0  0  0  0  0  0  0
   -0.1480  -14.4700    7.2920 C   0  0  0  0  0  0  0  0  0  0  0  0
    0.9760  -15.4680    7.3100 C   0  0  0  0  0  0  0  0  0  0  0  0
  2 12  2  0
  2  1  1  0
  3  2  1  0
  4  5  1  0
  4  3  2  0
  5 11  1  0
  6  7  1  0
  6  5  2  0
  7  8  2  0
  8  9  1  0
  9 10  2  0
 11  9  1  0
 11 12  1  0
 13  7  1  0
 14 13  1  0
 15 16  1  0
 15 14  1  1
 16 17  2  0
 17 18  1  0
 19 18  2  0
 20 16  1  0
 20 19  1  0
 21 15  1  0
 22 23  1  0
 22 21  1  0
 23 21  1  0
M  END
$$$$
