lig_000
     RDKit          3D

 33 35  0  0  0  0  0  0  0  0999 V2000
    9.2510   -1.4370   60.3950 N   0  0  0  0  0  0  0  0  0  0  0  0
    8.7420   -1.6010   59.1060 C   0  0  0  0  0  0  0  0  0  0  0  0
    8.1830   -2.6160   58.7050 O   0  0  0  0  0  0  0  0  0  0  0  0
   11.1270    1.1220   64.5700 C   0  0  0  0  0  0  0  0  0  0  0  0
   10.9500    1.3190   63.1340 N   0  0  0  0  0  0  0  0  0  0  0  0
    9.5420    1.1560   62.7510 C   0  0  0  0  0  0  0  0  0  0  0  0
    9.3810    0.9810   61.2430 C   0  0  0  0  0  0  0  0  0  0  0  0
   10.1100   -0.2730   60.7320 C   0  0  0  0  0  0  0  0  0  0  0  0
   11.2460   -0.7020   61.6800 C   0  0  0  0  0  0  0  0  0  0  0  0
   11.8890    0.5120   62.3430 C   0  0  0  0  0  0  0  0  0  0  0  0
    9.2100   -2.6140   61.2660 C   0  0  0  0  0  0  0  0  0  0  0  0
    8.1000   -2.6160   62.2910 C   0  0  0  0  0  0  0  0  0  0  0  0
    8.2670   -1.9290   63.5060 C   0  0  0  0  0  0  0  0  0  0  0  0
    7.2610   -1.9440   64.4740 C   0  0  0  0  0  0  0  0  0  0  0  0
    6.0910   -2.6560   64.2370 C   0  0  0  0  0  0  0  0  0  0  0  0
    5.1290   -2.6690   65.1680 F   0  0  0  0  0  0  0  0  0  0  0  0
    5.9090   -3.3590   63.0560 C   0  0  0  0  0  0  0  0  0  0  0  0
    6.9150   -3.3390   62.0960 C   0  0  0  0  0  0  0  0  0  0  0  0
    6.7210   -4.0340   60.9670 F   0  0  0  0  0  0  0  0  0  0  0  0
    8.9460   -0.5100   58.3210 O   0  0  0  0  0  0  0  0  0  0  0  0
    9.5950   -0.7960   57.0800 C   0  0  0  0  0  0  0  0  0  0  0  0
   11.0440   -0.4010   57.2140 C   0  0  0  0  0  0  0  0  0  0  0  0
   11.4210    0.6960   57.9950 C   0  0  0  0  0  0  0  0  0  0  0  0
   12.7670    1.0530   58.1050 C   0  0  0  0  0  0  0  0  0  0  0  0
   13.7570    0.3250   57.4400 C   0  0  0  0  0  0  0  0  0  0  0  0
   13.3860   -0.7670   56.6570 C   0  0  0  0  0  0  0  0  0  0  0  0
   12.0390   -1.1260   56.5440 C   0  0  0  0  0  0  0  0  0  0  0  0
   15.0290    0.7830   57.6380 O   0  0  0  0  0  0  0  0  0  0  0  0
   15.3350    1.3310   58.9260 C   0  0  0  0  0  0  0  0  0  0  0  0
   15.9790    0.2510   59.8260 C   0  0  0  0  0  0  0  0  0  0  0  0
   14.9210   -0.6060   60.5290 C   0  0  0  0  0  0  0  0  0  0  0  0
   16.9140   -0.6290   58.9920 C   0  0  0  0  0  0  0  0  0  0  0  0
   16.7800    0.8960   60.8240 O   0  0  0  0  0  0  0  0  0  0  0  0
  1  8  1  0
  1 11  1  0
  2  1  1  0
  3  2  2  0
  5  4  1  0
  6  5  1  0
  7  6  1  0
  8  7  1  0
  8  9  1  0
  9 10  1  0
 10  5  1  0
 11 12  1  0
 12 13  1  0
 13 14  2  0
 15 14  1  0
 15 16  1  0
 17 15  2  0
 18 12  2  0
 18 17  1  0
 19 18  1  0
 20  2  1  0
 21 22  1  0
 21 20  1  0
 22 23  1  0
 23 24  2  0
 25 28  1  0
 25 24  1  0
 26 25  2  0
 27 26  1  0
 27 22  2  0
 28 29  1  0
 29 30  1  0
 30 31  1  0
 30 33  1  0
 32 30  1  0
M  END
$$$$
