lig_151
     RDKit          3D

 26 28  0  0  1  0  0  0  0  0999 V2000
   20.9420   17.1420   11.8520 C   0  0  0  0  0  0  0  0  0  0  0  0
   19.6730   17.5460   12.2870 C   0  0  0  0  0  0  0  0  0  0  0  0
   19.5210   18.1500   13.5380 C   0  0  0  0  0  0  0  0  0  0  0  0
   20.6360   18.3650   14.3500 C   0  0  0  0  0  0  0  0  0  0  0  0
   21.9030   17.9840   13.8990 C   0  0  0  0  0  0  0  0  0  0  0  0
   22.0640   17.3630   12.6570 C   0  0  0  0  0  0  0  0  0  0  0  0
   22.4600   16.2240   10.2060 N   0  0  0  0  0  0  0  0  0  0  0  0
   21.1450   16.5130   10.5170 C   0  0  0  0  0  0  0  0  0  0  0  0
   20.1570   16.3320    9.8160 O   0  0  0  0  0  0  0  0  0  0  0  0
   24.7070   12.3020    8.2480 C   0  0  0  0  0  0  0  0  0  0  0  0
   24.0730   13.6490    8.0870 C   0  0  0  0  0  0  0  0  0  0  0  0
   23.5610   14.3460    9.1930 C   0  0  0  0  0  0  0  0  0  0  0  0
   22.9430   15.5970    9.0380 C   0  0  0  0  0  0  0  0  0  0  0  0
   22.8280   16.1420    7.7570 C   0  0  0  0  0  0  0  0  0  0  0  0
   23.3220   15.4500    6.6480 C   0  0  0  0  0  0  0  0  0  0  0  0
   23.9330   14.2150    6.8190 C   0  0  0  0  0  0  0  0  0  0  0  0
   24.3910   13.5610    5.7420 F   0  0  0  0  0  0  0  0  0  0  0  0
   23.3210   18.2460   14.9340 S   0  0  0  0  0  0  0  0  0  0  0  0
   23.5870   17.0090   15.6340 O   0  0  0  0  0  0  0  0  0  0  0  0
   24.3380   18.9240   14.1660 O   0  0  0  0  0  0  0  0  0  0  0  0
   22.7090   19.3110   16.0820 N   0  0  0  0  0  0  0  0  0  0  0  0
   23.6210   20.3370   16.6390 C   0  0  1  0  0  0  0  0  0  0  0  0
   23.1540   21.7060   16.2000 C   0  0  0  0  0  0  0  0  0  0  0  0
   22.0670   22.0380   17.2020 C   0  0  0  0  0  0  0  0  0  0  0  0
   22.3340   21.2860   18.3940 O   0  0  0  0  0  0  0  0  0  0  0  0
   23.4700   20.4340   18.1510 C   0  0  0  0  0  0  0  0  0  0  0  0
  1  2  1  0
  1  6  2  0
  2  3  2  0
  3  4  1  0
  5  4  2  0
  5 18  1  0
  6  5  1  0
  7  8  1  0
  8  1  1  0
  9  8  2  0
 11 10  1  0
 11 12  1  0
 13 12  2  0
 13  7  1  0
 14 13  1  0
 15 16  1  0
 15 14  2  0
 16 11  2  0
 17 16  1  0
 18 19  2  0
 18 21  1  0
 20 18  2  0
 22 21  1  6
 22 26  1  0
 23 22  1  0
 23 24  1  0
 24 25  1  0
 26 25  1  0
M  END
$$$$
