lig_461
     RDKit          3D

 33 36  0  0  0  0  0  0  0  0999 V2000
   -2.4850   15.0710   14.2030 N   0  0  0  0  0  0  0  0  0  0  0  0
   -3.0910   13.8600   14.5440 C   0  0  0  0  0  0  0  0  0  0  0  0
   -4.2950   13.6340   14.4610 O   0  0  0  0  0  0  0  0  0  0  0  0
   -2.1640   12.8820   15.0040 C   0  0  0  0  0  0  0  0  0  0  0  0
   -2.4400   11.6150   15.4380 N   0  0  0  0  0  0  0  0  0  0  0  0
   -1.2670   10.9770   15.7950 C   0  0  0  0  0  0  0  0  0  0  0  0
   -0.2420   11.8900   15.5770 C   0  0  0  0  0  0  0  0  0  0  0  0
   -0.8170   13.0790   15.0760 C   0  0  0  0  0  0  0  0  0  0  0  0
   -0.2630   14.2880   14.6820 N   0  0  0  0  0  0  0  0  0  0  0  0
   -1.1000   15.3180   14.2190 C   0  0  0  0  0  0  0  0  0  0  0  0
   -0.6400   16.4000   13.8410 O   0  0  0  0  0  0  0  0  0  0  0  0
   -1.2310    9.6080   16.3130 C   0  0  0  0  0  0  0  0  0  0  0  0
   -0.0650    9.1080   16.9070 C   0  0  0  0  0  0  0  0  0  0  0  0
   -0.0190    7.8020   17.4080 C   0  0  0  0  0  0  0  0  0  0  0  0
   -1.1420    6.9710   17.3270 C   0  0  0  0  0  0  0  0  0  0  0  0
   -2.3030    7.4610   16.7180 C   0  0  0  0  0  0  0  0  0  0  0  0
   -2.3480    8.7670   16.2190 C   0  0  0  0  0  0  0  0  0  0  0  0
   -1.0860    5.5550   17.8440 C   0  0  0  0  0  0  0  0  0  0  0  0
   -1.8980    4.7490   16.9870 O   0  0  0  0  0  0  0  0  0  0  0  0
   -3.0310    4.2910   17.5790 C   0  0  0  0  0  0  0  0  0  0  0  0
   -3.0470    3.6560   18.6220 O   0  0  0  0  0  0  0  0  0  0  0  0
   -4.0940    4.6680   16.8090 N   0  0  0  0  0  0  0  0  0  0  0  0
   -5.4300    4.3980   17.0650 C   0  0  0  0  0  0  0  0  0  0  0  0
   -6.1670    3.2220   16.7330 C   0  0  0  0  0  0  0  0  0  0  0  0
   -7.4830    3.2880   17.1370 C   0  0  0  0  0  0  0  0  0  0  0  0
   -7.8380    4.7650   17.9180 S   0  0  0  0  0  0  0  0  0  0  0  0
   -6.2310    5.3160   17.7150 C   0  0  0  0  0  0  0  0  0  0  0  0
   -3.3540   16.1330   13.7110 C   0  0  0  0  0  0  0  0  0  0  0  0
   -4.3020   18.4010   14.2710 C   0  0  0  0  0  0  0  0  0  0  0  0
   -3.7510   17.0980   14.8290 C   0  0  0  0  0  0  0  0  0  0  0  0
    1.1800   14.5240   14.7440 C   0  0  0  0  0  0  0  0  0  0  0  0
    1.8530   14.5350   13.3680 C   0  0  0  0  0  0  0  0  0  0  0  0
    2.7670   15.7320   13.1530 C   0  0  0  0  0  0  0  0  0  0  0  0
  1 10  1  0
  1  2  1  0
  2  4  1  0
  3  2  2  0
  4  8  2  0
  4  5  1  0
  5  6  1  0
  6 12  1  0
  7  6  2  0
  8  7  1  0
  9 31  1  0
  9  8  1  0
 10  9  1  0
 11 10  2  0
 12 13  1  0
 13 14  2  0
 15 14  1  0
 15 18  1  0
 16 15  2  0
 17 12  2  0
 17 16  1  0
 19 20  1  0
 19 18  1  0
 20 21  2  0
 22 23  1  0
 22 20  1  0
 23 27  2  0
 24 23  1  0
 24 25  2  0
 25 26  1  0
 27 26  1  0
 28  1  1  0
 28 30  1  0
 29 30  1  0
 32 31  1  0
 33 32  1  0
M  END
$$$$
