lig_021
     RDKit          3D

 32 36  0  0  1  0  0  0  0  0999 V2000
  -14.2400  -12.9510   29.9810 N   0  0  0  0  0  0  0  0  0  0  0  0
  -14.2140  -13.4750   31.2500 C   0  0  0  0  0  0  0  0  0  0  0  0
  -13.0340  -14.1810   31.4170 C   0  0  0  0  0  0  0  0  0  0  0  0
  -12.3380  -14.0860   30.1800 C   0  0  0  0  0  0  0  0  0  0  0  0
  -11.1340  -14.6290   29.8480 N   0  0  0  0  0  0  0  0  0  0  0  0
  -10.7240  -14.3640   28.5880 C   0  0  0  0  0  0  0  0  0  0  0  0
  -11.4200  -13.6130   27.6530 C   0  0  0  0  0  0  0  0  0  0  0  0
  -12.6520  -13.0670   27.9990 C   0  0  0  0  0  0  0  0  0  0  0  0
  -13.1020  -13.3230   29.2980 C   0  0  0  0  0  0  0  0  0  0  0  0
  -12.6410  -14.8700   32.6370 C   0  0  0  0  0  0  0  0  0  0  0  0
  -11.6000  -15.5120   32.7270 O   0  0  0  0  0  0  0  0  0  0  0  0
  -13.5330  -14.7380   33.6800 N   0  0  0  0  0  0  0  0  0  0  0  0
  -13.2320  -15.2070   35.0280 C   0  0  1  0  0  0  0  0  0  0  0  0
  -12.7370  -14.0650   35.9160 C   0  0  0  0  0  0  0  0  0  0  0  0
  -12.5440  -14.5540   37.3440 C   0  0  0  0  0  0  0  0  0  0  0  0
  -13.7570  -15.1060   37.8540 O   0  0  0  0  0  0  0  0  0  0  0  0
  -14.1850  -16.2460   37.1060 C   0  0  0  0  0  0  0  0  0  0  0  0
  -14.4680  -15.8790   35.6510 C   0  0  2  0  0  0  0  0  0  0  0  0
  -14.8230  -17.0470   34.9090 O   0  0  0  0  0  0  0  0  0  0  0  0
  -15.3470  -12.1650   29.4390 C   0  0  0  0  0  0  0  0  0  0  0  0
  -14.0850   -8.1760   28.2650 C   0  0  0  0  0  0  0  0  0  0  0  0
  -13.6670   -8.7420   29.4780 C   0  0  0  0  0  0  0  0  0  0  0  0
  -14.0770  -10.0260   29.8560 C   0  0  0  0  0  0  0  0  0  0  0  0
  -14.9250  -10.7750   29.0310 C   0  0  0  0  0  0  0  0  0  0  0  0
  -15.3320  -10.2190   27.8100 C   0  0  0  0  0  0  0  0  0  0  0  0
  -14.9210   -8.9340   27.4350 C   0  0  0  0  0  0  0  0  0  0  0  0
  -11.1220   -4.4070   27.6750 C   0  0  0  0  0  0  0  0  0  0  0  0
  -12.3540   -5.1540   27.6180 N   0  0  0  0  0  0  0  0  0  0  0  0
  -13.5500   -4.7230   27.1360 C   0  0  0  0  0  0  0  0  0  0  0  0
  -14.4140   -5.7810   27.2930 C   0  0  0  0  0  0  0  0  0  0  0  0
  -13.6480   -6.8250   27.8850 C   0  0  0  0  0  0  0  0  0  0  0  0
  -12.3820   -6.4150   28.0770 N   0  0  0  0  0  0  0  0  0  0  0  0
  1  2  1  0
  2  3  2  0
  3 10  1  0
  4  3  1  0
  5  4  2  0
  6  5  1  0
  7  8  1  0
  7  6  2  0
  8  9  2  0
  9  1  1  0
  9  4  1  0
 10 11  2  0
 10 12  1  0
 13 12  1  6
 13 18  1  0
 13 14  1  0
 14 15  1  0
 15 16  1  0
 17 16  1  0
 18 19  1  6
 18 17  1  0
 20  1  1  0
 21 22  1  0
 22 23  2  0
 24 20  1  0
 24 23  1  0
 25 24  2  0
 26 25  1  0
 26 21  2  0
 28 27  1  0
 28 32  1  0
 29 30  2  0
 29 28  1  0
 30 31  1  0
 31 32  2  0
 31 21  1  0
M  END
$$$$
