lig_013
     RDKit          3D

 36 39  0  0  1  0  0  0  0  0999 V2000
    6.5460   -0.5500  -18.2760 O   0  0  0  0  0  0  0  0  0  0  0  0
    6.2040   -0.4960  -17.0960 C   0  0  0  0  0  0  0  0  0  0  0  0
    5.3490   -1.4480  -16.5920 N   0  0  0  0  0  0  0  0  0  0  0  0
    5.2340   -1.6240  -15.1650 C   0  0  0  0  0  0  0  0  0  0  0  0
    4.9940   -0.2810  -14.4790 C   0  0  0  0  0  0  0  0  0  0  0  0
    5.9620    0.7530  -14.8610 N   0  0  0  0  0  0  0  0  0  0  0  0
    6.0620    1.9820  -14.2250 C   0  0  0  0  0  0  0  0  0  0  0  0
    6.8770    2.8280  -14.5990 O   0  0  0  0  0  0  0  0  0  0  0  0
    6.7430    0.5600  -16.1120 C   0  0  1  0  0  0  0  0  0  0  0  0
    8.1880    0.2200  -15.7070 C   0  0  0  0  0  0  0  0  0  0  0  0
    8.4860   -0.2440  -14.6070 O   0  0  0  0  0  0  0  0  0  0  0  0
    9.1370    0.5880  -16.6420 N   0  0  0  0  0  0  0  0  0  0  0  0
   10.5410    0.5160  -16.3200 C   0  0  0  0  0  0  0  0  0  0  0  0
   11.0780    1.8740  -15.9620 C   0  0  0  0  0  0  0  0  0  0  0  0
   11.8680    2.5910  -16.8720 C   0  0  0  0  0  0  0  0  0  0  0  0
   12.3860    3.8400  -16.5290 C   0  0  0  0  0  0  0  0  0  0  0  0
   12.1290    4.3810  -15.2700 C   0  0  0  0  0  0  0  0  0  0  0  0
   11.3570    3.6710  -14.3520 C   0  0  0  0  0  0  0  0  0  0  0  0
   10.8390    2.4210  -14.6930 C   0  0  0  0  0  0  0  0  0  0  0  0
    5.1740    2.2080  -13.0100 C   0  0  0  0  0  0  0  0  0  0  0  0
    5.7230    3.2680  -12.0500 C   0  0  0  0  0  0  0  0  0  0  0  0
    5.6220    4.7060  -12.5870 C   0  0  0  0  0  0  0  0  0  0  0  0
    6.4320    5.6690  -11.8250 N   0  0  0  0  0  0  0  0  0  0  0  0
    7.6100    5.0510  -11.1720 C   0  0  0  0  0  0  0  0  0  0  0  0
    8.9560    5.1920  -11.9260 C   0  0  0  0  0  0  0  0  0  0  0  0
    9.2640    6.6060  -12.2360 N   0  0  0  0  0  0  0  0  0  0  0  0
    8.1110    7.5240  -12.2110 C   0  0  0  0  0  0  0  0  0  0  0  0
    6.8480    6.7880  -12.7100 C   0  0  0  0  0  0  0  0  0  0  0  0
   10.5550    7.0710  -11.9650 C   0  0  0  0  0  0  0  0  0  0  0  0
   11.4710    7.2710  -13.0180 C   0  0  0  0  0  0  0  0  0  0  0  0
   12.7650    7.7560  -12.8000 C   0  0  0  0  0  0  0  0  0  0  0  0
   13.1870    8.0510  -11.5120 C   0  0  0  0  0  0  0  0  0  0  0  0
   12.3220    7.8480  -10.4370 C   0  0  0  0  0  0  0  0  0  0  0  0
   12.9360    8.2240   -8.8600 Cl  0  0  0  0  0  0  0  0  0  0  0  0
   11.0180    7.3560  -10.6500 C   0  0  0  0  0  0  0  0  0  0  0  0
   10.0110    7.0160   -9.2670 Cl  0  0  0  0  0  0  0  0  0  0  0  0
  1  2  2  0
  2  3  1  0
  2  9  1  0
  3  4  1  0
  4  5  1  0
  6  5  1  0
  6  7  1  0
  7 20  1  0
  8  7  2  0
  9 10  1  1
  9  6  1  0
 10 11  2  0
 12 13  1  0
 12 10  1  0
 13 14  1  0
 14 19  1  0
 15 16  1  0
 15 14  2  0
 16 17  2  0
 17 18  1  0
 19 18  2  0
 20 21  1  0
 22 21  1  0
 22 23  1  0
 23 24  1  0
 25 24  1  0
 26 27  1  0
 26 29  1  0
 26 25  1  0
 28 27  1  0
 28 23  1  0
 29 35  1  0
 30 31  1  0
 30 29  2  0
 31 32  2  0
 32 33  1  0
 33 34  1  0
 35 33  2  0
 35 36  1  0
M  END
$$$$
