lig_021
     RDKit          3D

 33 37  0  0  1  0  0  0  0  0999 V2000
   10.2780    7.0920   -9.6240 C   0  0  1  0  0  0  0  0  0  0  0  0
    9.4190    5.8190   -9.6640 C   0  0  0  0  0  0  0  0  0  0  0  0
    8.9630    5.4280  -11.0740 C   0  0  0  0  0  0  0  0  0  0  0  0
    9.9920    5.8360  -12.1320 C   0  0  2  0  0  0  0  0  0  0  0  0
   10.1900    7.3640  -12.1470 C   0  0  0  0  0  0  0  0  0  0  0  0
    9.9350    8.0230  -10.7880 C   0  0  0  0  0  0  0  0  0  0  0  0
   10.0570    7.8310   -8.3680 N   0  0  0  0  0  0  0  0  0  0  0  0
   11.3520    8.6300   -7.6470 S   0  0  0  0  0  0  0  0  0  0  0  0
   10.9760   10.0210   -7.5330 O   0  0  0  0  0  0  0  0  0  0  0  0
   12.5800    8.2080   -8.2840 O   0  0  0  0  0  0  0  0  0  0  0  0
   12.5700    8.8500   -2.6220 C   0  0  0  0  0  0  0  0  0  0  0  0
   12.0010    8.1650   -3.7990 C   0  0  0  0  0  0  0  0  0  0  0  0
   11.4110    6.9370   -3.9880 C   0  0  0  0  0  0  0  0  0  0  0  0
   11.0780    6.8690   -5.3600 C   0  0  0  0  0  0  0  0  0  0  0  0
   11.4780    8.0600   -5.9540 C   0  0  0  0  0  0  0  0  0  0  0  0
   12.0460    8.8500   -4.9730 O   0  0  0  0  0  0  0  0  0  0  0  0
    9.6920    5.2670  -13.5350 C   0  0  0  0  0  0  0  0  0  0  0  0
   10.5890    4.0950  -13.9700 C   0  0  0  0  0  0  0  0  0  0  0  0
    9.9730    2.7620  -14.0070 N   0  0  0  0  0  0  0  0  0  0  0  0
   10.5370    1.8800  -15.0510 C   0  0  0  0  0  0  0  0  0  0  0  0
    9.9280    0.4580  -15.0050 C   0  0  0  0  0  0  0  0  0  0  0  0
    8.4480    0.4800  -15.0720 N   0  0  0  0  0  0  0  0  0  0  0  0
    7.8670    0.5090  -16.3200 C   0  0  0  0  0  0  0  0  0  0  0  0
    8.4910    0.9450  -17.4140 N   0  0  0  0  0  0  0  0  0  0  0  0
    7.4730    0.8650  -18.7050 S   0  0  0  0  0  0  0  0  0  0  0  0
    6.1450    0.1770  -17.8700 C   0  0  0  0  0  0  0  0  0  0  0  0
    4.8810   -0.1970  -18.3590 C   0  0  0  0  0  0  0  0  0  0  0  0
    3.9680   -0.7680  -17.4720 C   0  0  0  0  0  0  0  0  0  0  0  0
    4.3040   -0.9660  -16.1390 C   0  0  0  0  0  0  0  0  0  0  0  0
    5.5640   -0.5840  -15.6630 C   0  0  0  0  0  0  0  0  0  0  0  0
    6.5120    0.0160  -16.5320 C   0  0  0  0  0  0  0  0  0  0  0  0
    7.8810    1.3830  -14.0440 C   0  0  0  0  0  0  0  0  0  0  0  0
    8.5020    2.7980  -14.1260 C   0  0  0  0  0  0  0  0  0  0  0  0
  1  7  1  1
  2  1  1  0
  3  2  1  0
  4 17  1  6
  4  3  1  0
  5  4  1  0
  5  6  1  0
  6  1  1  0
  7  8  1  0
  8  9  2  0
  8 15  1  0
 10  8  2  0
 12 11  1  0
 13 12  2  0
 14 13  1  0
 15 14  2  0
 15 16  1  0
 16 12  1  0
 18 17  1  0
 19 18  1  0
 20 21  1  0
 20 19  1  0
 22 21  1  0
 22 32  1  0
 23 22  1  0
 24 23  2  0
 25 26  1  0
 25 24  1  0
 26 31  1  0
 27 26  2  0
 27 28  1  0
 28 29  2  0
 29 30  1  0
 31 23  1  0
 31 30  2  0
 33 32  1  0
 33 19  1  0
M  END
$$$$
