lig_432
     RDKit          3D

 19 21  0  0  0  0  0  0  0  0999 V2000
   -0.7960    8.2710   16.9370 C   0  0  0  0  0  0  0  0  0  0  0  0
   -2.1160    7.8240   16.7620 C   0  0  0  0  0  0  0  0  0  0  0  0
   -2.4840    6.5330   17.1600 C   0  0  0  0  0  0  0  0  0  0  0  0
   -3.8700    6.0560   16.9820 C   0  0  0  0  0  0  0  0  0  0  0  0
   -4.7010    6.8020   16.4770 O   0  0  0  0  0  0  0  0  0  0  0  0
   -4.1750    4.6630   17.4370 C   0  0  0  0  0  0  0  0  0  0  0  0
   -3.1400    3.9850   17.9640 C   0  0  0  0  0  0  0  0  0  0  0  0
   -1.8480    4.4140   18.1340 O   0  0  0  0  0  0  0  0  0  0  0  0
   -1.5430    5.6840   17.7280 C   0  0  0  0  0  0  0  0  0  0  0  0
   -0.2260    6.1090   17.9030 C   0  0  0  0  0  0  0  0  0  0  0  0
    0.1380    7.3960   17.5050 C   0  0  0  0  0  0  0  0  0  0  0  0
   -5.4870    4.0840   17.3180 C   0  0  0  0  0  0  0  0  0  0  0  0
   -6.6260    4.4280   18.0210 C   0  0  0  0  0  0  0  0  0  0  0  0
   -7.9510    3.4510   17.5290 S   0  0  0  0  0  0  0  0  0  0  0  0
   -6.9180    2.6470   16.4260 C   0  0  0  0  0  0  0  0  0  0  0  0
   -5.6690    3.0530   16.4010 N   0  0  0  0  0  0  0  0  0  0  0  0
   -1.1520   10.0720   15.2230 C   0  0  0  0  0  0  0  0  0  0  0  0
   -0.4120    9.6590   16.4870 C   0  0  0  0  0  0  0  0  0  0  0  0
    1.4250    7.8230   17.6640 O   0  0  0  0  0  0  0  0  0  0  0  0
  1 11  2  0
  2  1  1  0
  2  3  2  0
  3  9  1  0
  4  3  1  0
  4  6  1  0
  5  4  2  0
  6  7  2  0
  7  8  1  0
  9 10  2  0
  9  8  1  0
 11 19  1  0
 11 10  1  0
 12  6  1  0
 12 13  2  0
 14 13  1  0
 15 14  1  0
 16 15  2  0
 16 12  1  0
 17 18  1  0
 18  1  1  0
M  END
$$$$
