lig_020
     RDKit          3D

 38 44  0  0  1  0  0  0  0  0999 V2000
    5.3130  -26.7080   63.7630 C   0  0  2  0  0  0  0  0  0  0  0  0
    4.0470  -27.1780   63.0220 C   0  0  0  0  0  0  0  0  0  0  0  0
    3.3980  -26.0130   62.2650 C   0  0  0  0  0  0  0  0  0  0  0  0
    4.3260  -25.4830   61.1640 C   0  0  2  0  0  0  0  0  0  0  0  0
    5.7290  -25.0930   61.7220 C   0  0  2  0  0  0  0  0  0  0  0  0
    6.6760  -25.1300   60.5890 O   0  0  0  0  0  0  0  0  0  0  0  0
    7.1540  -26.4220   60.6330 C   0  0  0  0  0  0  0  0  0  0  0  0
    7.7660  -27.1360   59.6300 C   0  0  0  0  0  0  0  0  0  0  0  0
    8.0790  -28.4800   59.8700 C   0  0  0  0  0  0  0  0  0  0  0  0
    7.7580  -29.0900   61.1040 C   0  0  0  0  0  0  0  0  0  0  0  0
    7.1520  -28.3510   62.1210 C   0  0  0  0  0  0  0  0  0  0  0  0
    6.9000  -27.0200   61.8530 C   0  0  0  0  0  0  0  0  0  0  0  0
    6.3040  -26.0340   62.7950 C   0  0  2  0  0  0  0  0  0  0  0  0
    7.4570  -25.3820   63.5970 C   0  0  0  0  0  0  0  0  0  0  0  0
    8.1520  -26.3840   64.5360 C   0  0  0  0  0  0  0  0  0  0  0  0
    7.2060  -27.2050   65.3040 N   0  0  0  0  0  0  0  0  0  0  0  0
    6.1500  -27.8500   64.4610 C   0  0  2  0  0  0  0  0  0  0  0  0
    6.6830  -28.9190   63.4340 C   0  0  0  0  0  0  0  0  0  0  0  0
    3.7410  -24.3420   60.4500 N   0  0  0  0  0  0  0  0  0  0  0  0
    3.2960  -23.2240   61.1140 C   0  0  0  0  0  0  0  0  0  0  0  0
    3.4500  -23.0080   62.3090 O   0  0  0  0  0  0  0  0  0  0  0  0
    2.5060  -22.2740   60.2910 C   0  0  0  0  0  0  0  0  0  0  0  0
    2.0290  -21.1060   60.7500 C   0  0  0  0  0  0  0  0  0  0  0  0
    1.2230  -20.1840   59.9380 C   0  0  0  0  0  0  0  0  0  0  0  0
    0.2770  -20.6370   59.0090 C   0  0  0  0  0  0  0  0  0  0  0  0
   -0.4900  -19.7280   58.2760 C   0  0  0  0  0  0  0  0  0  0  0  0
   -0.3260  -18.3590   58.4710 C   0  0  0  0  0  0  0  0  0  0  0  0
    0.6000  -17.8960   59.4030 C   0  0  0  0  0  0  0  0  0  0  0  0
    1.3670  -18.8050   60.1370 C   0  0  0  0  0  0  0  0  0  0  0  0
    8.0250  -26.5440   58.4320 O   0  0  0  0  0  0  0  0  0  0  0  0
    4.9150  -25.6690   64.7210 O   0  0  0  0  0  0  0  0  0  0  0  0
    4.8530  -25.2530   67.0180 C   0  0  0  0  0  0  0  0  0  0  0  0
    4.2620  -26.0040   65.8650 C   0  0  0  0  0  0  0  0  0  0  0  0
    3.3220  -26.7800   65.9610 O   0  0  0  0  0  0  0  0  0  0  0  0
    7.8810  -28.1610   66.1890 C   0  0  0  0  0  0  0  0  0  0  0  0
    7.5180  -27.8860   67.6190 C   0  0  0  0  0  0  0  0  0  0  0  0
    7.6260  -28.9570   68.6770 C   0  0  0  0  0  0  0  0  0  0  0  0
    6.2730  -28.5070   68.2040 C   0  0  0  0  0  0  0  0  0  0  0  0
  1 17  1  0
  1 31  1  1
  2  1  1  0
  3  2  1  0
  4 19  1  1
  4  5  1  0
  4  3  1  0
  5  6  1  6
  5 13  1  0
  6  7  1  0
  7 12  1  0
  8  9  1  0
  8  7  2  0
  9 10  2  0
 10 11  1  0
 11 18  1  0
 12 11  2  0
 12 13  1  0
 13 14  1  1
 13  1  1  0
 14 15  1  0
 15 16  1  0
 16 35  1  0
 17 18  1  6
 17 16  1  0
 19 20  1  0
 20 21  2  0
 22 23  2  0
 22 20  1  0
 24 29  1  0
 24 23  1  0
 25 24  2  0
 26 27  2  0
 26 25  1  0
 27 28  1  0
 28 29  2  0
 30  8  1  0
 31 33  1  0
 33 34  2  0
 33 32  1  0
 35 36  1  0
 36 38  1  0
 36 37  1  0
 38 37  1  0
M  END
$$$$
