lig_352
     RDKit          3D

 32 35  0  0  1  0  0  0  0  0999 V2000
   -3.4790   10.1110   15.5110 C   0  0  0  0  0  0  0  0  0  0  0  0
   -2.6620    9.1760   16.0610 N   0  0  0  0  0  0  0  0  0  0  0  0
   -1.5230    9.5890   16.6580 C   0  0  0  0  0  0  0  0  0  0  0  0
   -1.0420   10.8390   16.7910 N   0  0  0  0  0  0  0  0  0  0  0  0
   -1.8730   11.7260   16.2240 C   0  0  0  0  0  0  0  0  0  0  0  0
   -3.0740   11.4610   15.5860 C   0  0  0  0  0  0  0  0  0  0  0  0
   -3.6480   12.6270   15.1180 N   0  0  0  0  0  0  0  0  0  0  0  0
   -2.8190   13.5800   15.4880 C   0  0  0  0  0  0  0  0  0  0  0  0
   -1.7230   13.0830   16.1440 N   0  0  0  0  0  0  0  0  0  0  0  0
   -0.5900   13.8330   16.6460 C   0  0  2  0  0  0  0  0  0  0  0  0
   -1.0040   14.5920   17.8080 O   0  0  0  0  0  0  0  0  0  0  0  0
   -0.3580   15.8860   17.7500 C   0  0  1  0  0  0  0  0  0  0  0  0
    0.6150   15.8500   16.5700 C   0  0  2  0  0  0  0  0  0  0  0  0
   -0.0440   14.8480   15.6380 C   0  0  1  0  0  0  0  0  0  0  0  0
    1.8830   15.2960   16.9720 O   0  0  0  0  0  0  0  0  0  0  0  0
    0.8890   14.3120   14.7100 O   0  0  0  0  0  0  0  0  0  0  0  0
   -1.4360   16.9620   17.6040 C   0  0  0  0  0  0  0  0  0  0  0  0
   -1.2680   17.9650   18.5950 O   0  0  0  0  0  0  0  0  0  0  0  0
   -4.6840    9.7530   14.9000 N   0  0  0  0  0  0  0  0  0  0  0  0
   -6.1420    8.1750   13.7630 C   0  0  0  0  0  0  0  0  0  0  0  0
   -4.9030    8.3330   14.6460 C   0  0  0  0  0  0  0  0  0  0  0  0
   -5.1130    7.5950   15.9680 C   0  0  0  0  0  0  0  0  0  0  0  0
   -0.7160    8.5540   17.2180 C   0  0  0  0  0  0  0  0  0  0  0  0
   -0.0420    7.6800   17.6920 C   0  0  0  0  0  0  0  0  0  0  0  0
    0.7710    6.6070   18.2750 C   0  0  1  0  0  0  0  0  0  0  0  0
   -0.0090    5.3150   18.4060 C   0  0  0  0  0  0  0  0  0  0  0  0
    0.5540    4.1700   18.9920 C   0  0  0  0  0  0  0  0  0  0  0  0
   -0.1740    2.9820   19.0820 C   0  0  0  0  0  0  0  0  0  0  0  0
   -1.4720    2.9180   18.5790 C   0  0  0  0  0  0  0  0  0  0  0  0
   -2.0420    4.0400   17.9840 C   0  0  0  0  0  0  0  0  0  0  0  0
   -1.3160    5.2300   17.8940 C   0  0  0  0  0  0  0  0  0  0  0  0
    1.9320    6.4030   17.4710 O   0  0  0  0  0  0  0  0  0  0  0  0
  1  6  2  0
  1  2  1  0
  2  3  2  0
  3  4  1  0
  3 23  1  0
  5  4  2  0
  6  5  1  0
  7  8  2  0
  7  6  1  0
  8  9  1  0
  9  5  1  0
 10  9  1  6
 10 11  1  0
 12 17  1  6
 12 11  1  0
 13 15  1  1
 13 12  1  0
 14 16  1  6
 14 13  1  0
 14 10  1  0
 17 18  1  0
 19  1  1  0
 20 21  1  0
 21 19  1  0
 21 22  1  0
 23 24  3  0
 25 24  1  0
 25 26  1  0
 26 27  2  0
 27 28  1  0
 29 28  2  0
 30 29  1  0
 31 30  2  0
 31 26  1  0
 25 32  1  6
M  END
$$$$
