lig_003
     RDKit          3D

 33 37  0  0  1  0  0  0  0  0999 V2000
   -0.5750  -23.2110   13.4410 C   0  0  1  0  0  0  0  0  0  0  0  0
   -0.6490  -22.6580   12.0190 C   0  0  0  0  0  0  0  0  0  0  0  0
   -0.3250  -21.1630   11.9220 C   0  0  0  0  0  0  0  0  0  0  0  0
    0.7010  -20.6700   12.9610 C   0  0  1  0  0  0  0  0  0  0  0  0
    1.5960  -21.8220   13.4270 C   0  0  0  0  0  0  0  0  0  0  0  0
    0.7920  -22.9450   14.0900 C   0  0  0  0  0  0  0  0  0  0  0  0
   -1.6260  -22.5990   14.2670 N   0  0  0  0  0  0  0  0  0  0  0  0
   -1.8520  -24.8210   15.4610 O   0  0  0  0  0  0  0  0  0  0  0  0
   -2.4100  -23.4880   15.4490 S   0  0  0  0  0  0  0  0  0  0  0  0
   -3.8240  -23.2550   15.2530 O   0  0  0  0  0  0  0  0  0  0  0  0
   -1.9350  -22.6530   16.9180 C   0  0  0  0  0  0  0  0  0  0  0  0
   -0.6660  -22.8340   17.4650 C   0  0  0  0  0  0  0  0  0  0  0  0
   -0.3300  -22.1400   18.6240 C   0  0  0  0  0  0  0  0  0  0  0  0
   -1.2780  -21.2940   19.1800 C   0  0  0  0  0  0  0  0  0  0  0  0
   -2.5110  -21.0970   18.6590 N   0  0  0  0  0  0  0  0  0  0  0  0
   -2.8130  -21.7760   17.5260 C   0  0  0  0  0  0  0  0  0  0  0  0
    1.5540  -19.5010   12.4260 C   0  0  0  0  0  0  0  0  0  0  0  0
    1.9750  -18.5170   13.5320 C   0  0  0  0  0  0  0  0  0  0  0  0
    1.3040  -17.2160   13.5310 N   0  0  0  0  0  0  0  0  0  0  0  0
    2.1070  -16.0930   13.0200 C   0  0  0  0  0  0  0  0  0  0  0  0
    1.7160  -15.5760   11.6150 C   0  0  0  0  0  0  0  0  0  0  0  0
    0.2770  -15.2590   11.5070 N   0  0  0  0  0  0  0  0  0  0  0  0
   -0.1050  -14.0450   10.9850 C   0  0  0  0  0  0  0  0  0  0  0  0
   -0.9820  -13.2480   11.5950 N   0  0  0  0  0  0  0  0  0  0  0  0
   -1.1790  -11.8610   10.7340 S   0  0  0  0  0  0  0  0  0  0  0  0
   -0.1420  -12.2850    9.4390 C   0  0  0  0  0  0  0  0  0  0  0  0
    0.1720  -11.5550    8.2790 C   0  0  0  0  0  0  0  0  0  0  0  0
    1.0320  -12.1310    7.3420 C   0  0  0  0  0  0  0  0  0  0  0  0
    1.5550  -13.4000    7.5510 C   0  0  0  0  0  0  0  0  0  0  0  0
    1.2370  -14.1140    8.7110 C   0  0  0  0  0  0  0  0  0  0  0  0
    0.3850  -13.5530    9.6990 C   0  0  0  0  0  0  0  0  0  0  0  0
   -0.5690  -15.8450   12.5660 C   0  0  0  0  0  0  0  0  0  0  0  0
   -0.0510  -17.2470   12.9540 C   0  0  0  0  0  0  0  0  0  0  0  0
  1  6  1  0
  1  7  1  1
  2  1  1  0
  3  2  1  0
  3  4  1  0
  4 17  1  6
  4  5  1  0
  5  6  1  0
  7  9  1  0
  9  8  2  0
  9 11  1  0
 10  9  2  0
 11 12  2  0
 11 16  1  0
 12 13  1  0
 13 14  2  0
 15 14  1  0
 16 15  2  0
 17 18  1  0
 19 18  1  0
 20 19  1  0
 21 20  1  0
 22 21  1  0
 22 32  1  0
 23 22  1  0
 23 24  2  0
 25 24  1  0
 26 31  1  0
 26 25  1  0
 27 26  2  0
 28 29  2  0
 28 27  1  0
 29 30  1  0
 30 31  2  0
 31 23  1  0
 32 33  1  0
 33 19  1  0
M  END
$$$$
