lig_028
     RDKit          3D

 29 33  0  0  0  0  0  0  0  0999 V2000
  125.7050  136.9530  106.3580 N   0  0  0  0  0  0  0  0  0  0  0  0
  126.4300  138.2180  106.5540 C   0  0  0  0  0  0  0  0  0  0  0  0
  125.5220  139.4070  106.8660 C   0  0  0  0  0  0  0  0  0  0  0  0
  124.4630  139.6280  105.7710 C   0  0  0  0  0  0  0  0  0  0  0  0
  124.1290  138.3250  105.0270 C   0  0  0  0  0  0  0  0  0  0  0  0
  124.3080  137.1220  105.9470 C   0  0  0  0  0  0  0  0  0  0  0  0
  124.8190  140.7310  104.8160 C   0  0  0  0  0  0  0  0  0  0  0  0
  124.2780  141.9510  104.9430 N   0  0  0  0  0  0  0  0  0  0  0  0
  124.8160  142.7140  103.9210 O   0  0  0  0  0  0  0  0  0  0  0  0
  125.6740  141.9560  103.1910 C   0  0  0  0  0  0  0  0  0  0  0  0
  126.4060  142.3780  102.0840 C   0  0  0  0  0  0  0  0  0  0  0  0
  127.2330  141.4200  101.4880 C   0  0  0  0  0  0  0  0  0  0  0  0
  127.3090  140.1170  101.9890 C   0  0  0  0  0  0  0  0  0  0  0  0
  126.5550  139.7260  103.1070 C   0  0  0  0  0  0  0  0  0  0  0  0
  125.7190  140.6780  103.7160 C   0  0  0  0  0  0  0  0  0  0  0  0
  125.8220  136.0190  107.4890 C   0  0  0  0  0  0  0  0  0  0  0  0
  124.6100  135.9550  108.4530 C   0  0  0  0  0  0  0  0  0  0  0  0
  124.3380  142.0850  113.5180 C   0  0  0  0  0  0  0  0  0  0  0  0
  124.2190  140.9910  112.4990 C   0  0  0  0  0  0  0  0  0  0  0  0
  124.9960  139.8400  112.6150 C   0  0  0  0  0  0  0  0  0  0  0  0
  124.8720  138.8380  111.6490 C   0  0  0  0  0  0  0  0  0  0  0  0
  123.9570  139.0140  110.6080 C   0  0  0  0  0  0  0  0  0  0  0  0
  123.2190  140.1870  110.5700 C   0  0  0  0  0  0  0  0  0  0  0  0
  123.3350  141.1780  111.4910 N   0  0  0  0  0  0  0  0  0  0  0  0
  123.7490  137.9680  109.5770 C   0  0  0  0  0  0  0  0  0  0  0  0
  122.7910  138.0590  108.8160 O   0  0  0  0  0  0  0  0  0  0  0  0
  124.6580  136.9080  109.5650 N   0  0  0  0  0  0  0  0  0  0  0  0
  125.8900  136.9930  110.3430 C   0  0  0  0  0  0  0  0  0  0  0  0
  125.6480  137.5560  111.7410 C   0  0  0  0  0  0  0  0  0  0  0  0
  1  2  1  0
  1 16  1  0
  2  3  1  0
  4  3  1  0
  5  4  1  0
  5  6  1  0
  6  1  1  0
  7  8  2  0
  7  4  1  0
  9  8  1  0
 10 15  1  0
 10  9  1  0
 11 10  2  0
 12 13  2  0
 12 11  1  0
 13 14  1  0
 14 15  2  0
 15  7  1  0
 16 17  1  0
 17 27  1  0
 19 20  2  0
 19 18  1  0
 21 29  1  0
 21 20  1  0
 22 21  2  0
 23 22  1  0
 23 24  2  0
 24 19  1  0
 25 22  1  0
 26 25  2  0
 27 25  1  0
 27 28  1  0
 28 29  1  0
M  END
$$$$
