lig_300
     RDKit          3D

 30 34  0  0  0  0  0  0  0  0999 V2000
   -3.7790    7.1240   16.4480 C   0  0  0  0  0  0  0  0  0  0  0  0
   -4.5470    8.1190   15.9170 N   0  0  0  0  0  0  0  0  0  0  0  0
   -4.0150    9.3540   15.8380 C   0  0  0  0  0  0  0  0  0  0  0  0
   -4.7960   10.3710   15.2890 N   0  0  0  0  0  0  0  0  0  0  0  0
   -4.3360   11.6490   15.1660 C   0  0  0  0  0  0  0  0  0  0  0  0
   -3.1180   12.0420   15.5560 C   0  0  0  0  0  0  0  0  0  0  0  0
   -2.2180   11.0260   16.1570 C   0  0  0  0  0  0  0  0  0  0  0  0
   -1.0920   11.3320   16.5330 O   0  0  0  0  0  0  0  0  0  0  0  0
   -2.7260    9.6410   16.2830 C   0  0  0  0  0  0  0  0  0  0  0  0
   -1.9490    8.6240   16.8340 C   0  0  0  0  0  0  0  0  0  0  0  0
   -2.4690    7.3260   16.9340 C   0  0  0  0  0  0  0  0  0  0  0  0
   -1.6470    6.2580   17.5230 C   0  0  0  0  0  0  0  0  0  0  0  0
   -0.2930    6.4720   17.8120 C   0  0  0  0  0  0  0  0  0  0  0  0
    0.4920    5.4530   18.3640 C   0  0  0  0  0  0  0  0  0  0  0  0
   -0.0310    4.2020   18.6500 C   0  0  0  0  0  0  0  0  0  0  0  0
    0.7650    3.2550   19.1760 N   0  0  0  0  0  0  0  0  0  0  0  0
    0.2220    2.0470   19.4430 C   0  0  0  0  0  0  0  0  0  0  0  0
   -1.1020    1.7290   19.2110 C   0  0  0  0  0  0  0  0  0  0  0  0
   -1.9220    2.7100   18.6670 C   0  0  0  0  0  0  0  0  0  0  0  0
   -1.3950    3.9760   18.3750 C   0  0  0  0  0  0  0  0  0  0  0  0
   -2.1890    4.9990   17.8230 C   0  0  0  0  0  0  0  0  0  0  0  0
   -6.0700    6.5390   18.3180 C   0  0  0  0  0  0  0  0  0  0  0  0
   -5.5510    5.5230   17.3260 C   0  0  0  0  0  0  0  0  0  0  0  0
   -6.1770    4.2570   17.2330 C   0  0  0  0  0  0  0  0  0  0  0  0
   -5.7000    3.2900   16.3380 C   0  0  0  0  0  0  0  0  0  0  0  0
   -4.6030    3.5620   15.5300 C   0  0  0  0  0  0  0  0  0  0  0  0
   -3.9910    4.8110   15.5980 C   0  0  0  0  0  0  0  0  0  0  0  0
   -4.4600    5.8150   16.4690 C   0  0  0  0  0  0  0  0  0  0  0  0
   -7.3130    3.9190   18.0470 C   0  0  0  0  0  0  0  0  0  0  0  0
   -8.2320    3.6400   18.7010 N   0  0  0  0  0  0  0  0  0  0  0  0
  1 28  1  0
  1 11  2  0
  2  1  1  0
  3  2  2  0
  3  9  1  0
  4  3  1  0
  5  4  1  0
  5  6  2  0
  6  7  1  0
  7  9  1  0
  7  8  2  0
  9 10  2  0
 10 11  1  0
 11 12  1  0
 12 13  1  0
 12 21  2  0
 13 14  2  0
 14 15  1  0
 15 16  2  0
 16 17  1  0
 18 17  2  0
 19 18  1  0
 20 15  1  0
 20 19  2  0
 21 20  1  0
 23 22  1  0
 24 23  2  0
 24 29  1  0
 25 24  1  0
 26 27  1  0
 26 25  2  0
 27 28  2  0
 28 23  1  0
 29 30  3  0
M  END
$$$$
