lig_026
     RDKit          3D

 30 33  0  0  1  0  0  0  0  0999 V2000
  -13.3020  -17.8060   36.9530 C   0  0  0  0  0  0  0  0  0  0  0  0
  -13.2250  -16.8590   35.7910 C   0  0  0  0  0  0  0  0  0  0  0  0
  -12.7450  -17.3250   34.5650 C   0  0  0  0  0  0  0  0  0  0  0  0
  -12.6090  -16.5690   33.4540 N   0  0  0  0  0  0  0  0  0  0  0  0
  -12.9650  -15.2640   33.5750 C   0  0  0  0  0  0  0  0  0  0  0  0
  -13.4400  -14.6930   34.7470 C   0  0  0  0  0  0  0  0  0  0  0  0
  -13.5720  -15.4980   35.8890 C   0  0  0  0  0  0  0  0  0  0  0  0
  -12.8120  -14.4240   32.3420 C   0  0  0  0  0  0  0  0  0  0  0  0
  -11.7420  -13.9150   32.0280 O   0  0  0  0  0  0  0  0  0  0  0  0
  -13.9720  -14.2770   31.6080 N   0  0  0  0  0  0  0  0  0  0  0  0
  -14.0180  -13.6360   30.2910 C   0  0  1  0  0  0  0  0  0  0  0  0
  -15.0700  -14.3140   29.4040 C   0  0  0  0  0  0  0  0  0  0  0  0
  -16.3970  -13.5780   29.4880 C   0  0  0  0  0  0  0  0  0  0  0  0
  -16.3130  -12.2370   29.0090 O   0  0  0  0  0  0  0  0  0  0  0  0
  -15.0420  -11.6070   29.1880 C   0  0  0  0  0  0  0  0  0  0  0  0
  -14.2760  -12.1110   30.4090 C   0  0  2  0  0  0  0  0  0  0  0  0
  -13.0450  -11.3960   30.5290 O   0  0  0  0  0  0  0  0  0  0  0  0
  -14.0760  -14.8650   37.1710 C   0  0  0  0  0  0  0  0  0  0  0  0
  -13.1090  -13.9040   37.8290 C   0  0  0  0  0  0  0  0  0  0  0  0
  -11.7720  -13.8270   37.4180 C   0  0  0  0  0  0  0  0  0  0  0  0
  -10.8910  -12.9260   38.0210 C   0  0  0  0  0  0  0  0  0  0  0  0
  -11.3350  -12.0730   39.0430 C   0  0  0  0  0  0  0  0  0  0  0  0
  -12.6740  -12.1340   39.4490 C   0  0  0  0  0  0  0  0  0  0  0  0
  -13.5520  -13.0400   38.8410 C   0  0  0  0  0  0  0  0  0  0  0  0
  -10.4180  -11.1640   39.6430 N   0  0  0  0  0  0  0  0  0  0  0  0
  -10.4040  -10.7060   40.9480 C   0  0  0  0  0  0  0  0  0  0  0  0
   -9.3370   -9.8560   41.0410 C   0  0  0  0  0  0  0  0  0  0  0  0
   -8.7470   -9.8370   39.7770 C   0  0  0  0  0  0  0  0  0  0  0  0
   -9.3930  -10.6280   38.9190 N   0  0  0  0  0  0  0  0  0  0  0  0
   -8.9630   -9.1900   42.1420 O   0  0  0  0  0  0  0  0  0  0  0  0
  2  7  2  0
  2  1  1  0
  3  2  1  0
  4  5  1  0
  4  3  2  0
  5  6  2  0
  6  7  1  0
  7 18  1  0
  8  5  1  0
  9  8  2  0
 10  8  1  0
 11 16  1  0
 11 10  1  1
 12 13  1  0
 12 11  1  0
 14 15  1  0
 14 13  1  0
 15 16  1  0
 16 17  1  6
 18 19  1  0
 19 24  2  0
 20 19  1  0
 20 21  2  0
 21 22  1  0
 22 23  2  0
 22 25  1  0
 24 23  1  0
 25 26  1  0
 26 27  2  0
 27 30  1  0
 28 27  1  0
 29 25  1  0
 29 28  2  0
M  END
$$$$
