lig_379
     RDKit          3D

 34 38  0  0  1  0  0  0  0  0999 V2000
   -1.5870  -19.6160   17.8050 C   0  0  0  0  0  0  0  0  0  0  0  0
   -1.2850  -20.0060   16.3600 C   0  0  0  0  0  0  0  0  0  0  0  0
    0.9400  -19.6550   14.6410 O   0  0  0  0  0  0  0  0  0  0  0  0
    0.0510  -18.8110   14.6650 C   0  0  0  0  0  0  0  0  0  0  0  0
   -1.0350  -18.8690   15.5080 N   0  0  0  0  0  0  0  0  0  0  0  0
    0.0780  -17.6640   13.7150 C   0  0  0  0  0  0  0  0  0  0  0  0
    0.0780  -17.9310   12.3430 C   0  0  0  0  0  0  0  0  0  0  0  0
    0.0870  -16.8810   11.4200 C   0  0  0  0  0  0  0  0  0  0  0  0
    0.1060  -15.5420   11.8460 C   0  0  0  0  0  0  0  0  0  0  0  0
    0.1270  -15.2900   13.2280 C   0  0  0  0  0  0  0  0  0  0  0  0
    0.1170  -16.3370   14.1570 C   0  0  0  0  0  0  0  0  0  0  0  0
    0.1110  -14.4360   10.8740 C   0  0  0  0  0  0  0  0  0  0  0  0
   -0.6300  -13.2660   11.1060 C   0  0  0  0  0  0  0  0  0  0  0  0
   -0.6240  -12.2150   10.1860 C   0  0  0  0  0  0  0  0  0  0  0  0
    0.1220  -12.3170    9.0140 C   0  0  0  0  0  0  0  0  0  0  0  0
    0.8610  -13.4700    8.7630 C   0  0  0  0  0  0  0  0  0  0  0  0
    0.8560  -14.5200    9.6860 C   0  0  0  0  0  0  0  0  0  0  0  0
   -2.7710  -20.3170   18.4900 C   0  0  0  0  0  0  0  0  0  0  0  0
   -2.4500  -21.6500   19.1910 C   0  0  0  0  0  0  0  0  0  0  0  0
   -3.4210  -22.7300   18.8920 N   0  0  0  0  0  0  0  0  0  0  0  0
   -4.7710  -22.1370   18.6700 C   0  0  0  0  0  0  0  0  0  0  0  0
   -5.6560  -22.9270   17.7060 C   0  0  0  0  0  0  0  0  0  0  0  0
   -5.0090  -23.0680   16.3230 C   0  0  0  0  0  0  0  0  0  0  0  0
   -3.4680  -23.0100   16.3920 C   0  0  2  0  0  0  0  0  0  0  0  0
   -2.7140  -23.5790   15.1990 C   0  0  0  0  0  0  0  0  0  0  0  0
   -3.3260  -23.8030   13.9560 C   0  0  0  0  0  0  0  0  0  0  0  0
   -2.5810  -24.2570   12.8670 C   0  0  0  0  0  0  0  0  0  0  0  0
   -1.2120  -24.4600   12.9980 C   0  0  0  0  0  0  0  0  0  0  0  0
   -0.5850  -24.2090   14.2150 C   0  0  0  0  0  0  0  0  0  0  0  0
   -1.3200  -23.7930   15.3320 C   0  0  0  0  0  0  0  0  0  0  0  0
   -0.6980  -23.5440   16.6850 C   0  0  0  0  0  0  0  0  0  0  0  0
   -1.5770  -24.1470   17.7740 C   0  0  0  0  0  0  0  0  0  0  0  0
   -3.0250  -23.6140   17.7540 C   0  0  1  0  0  0  0  0  0  0  0  0
    0.7680  -24.3890   14.2320 O   0  0  0  0  0  0  0  0  0  0  0  0
  1 18  1  0
  2  1  1  0
  3  4  2  0
  4  5  1  0
  5  2  1  0
  6 11  2  0
  6  4  1  0
  7  6  1  0
  8  9  1  0
  8  7  2  0
  9 10  2  0
 10 11  1  0
 12 13  2  0
 12  9  1  0
 14 13  1  0
 15 14  2  0
 16 15  1  0
 16 17  2  0
 17 12  1  0
 18 19  1  0
 20 19  1  0
 21 20  1  0
 22 21  1  0
 23 22  1  0
 24 23  1  6
 24 33  1  0
 25 30  1  0
 25 24  1  0
 26 25  2  0
 27 28  2  0
 27 26  1  0
 28 29  1  0
 29 34  1  0
 29 30  2  0
 30 31  1  0
 31 32  1  0
 33 32  1  6
 33 20  1  0
M  END
$$$$
