lig_003
     RDKit          3D

 24 27  0  0  1  0  0  0  0  0999 V2000
  178.7170  173.0390  138.9620 N   0  0  0  0  0  0  0  0  0  0  0  0
  177.8460  173.4880  137.9860 C   0  0  0  0  0  0  0  0  0  0  0  0
  177.4750  174.7300  138.2440 N   0  0  0  0  0  0  0  0  0  0  0  0
  178.1410  175.1100  139.3750 C   0  0  0  0  0  0  0  0  0  0  0  0
  178.1120  176.3350  140.0580 C   0  0  0  0  0  0  0  0  0  0  0  0
  178.9020  176.4890  141.2020 C   0  0  0  0  0  0  0  0  0  0  0  0
  179.7070  175.4440  141.6560 C   0  0  0  0  0  0  0  0  0  0  0  0
  179.7450  174.2140  140.9880 C   0  0  0  0  0  0  0  0  0  0  0  0
  178.9430  174.0790  139.8450 C   0  0  0  0  0  0  0  0  0  0  0  0
  177.3620  172.7490  136.7640 C   0  0  1  0  0  0  0  0  0  0  0  0
  176.4410  173.6010  135.8810 C   0  0  0  0  0  0  0  0  0  0  0  0
  175.9800  172.8030  134.6620 C   0  0  0  0  0  0  0  0  0  0  0  0
  177.1610  172.1740  133.9240 C   0  0  0  0  0  0  0  0  0  0  0  0
  177.9610  171.3180  134.8010 N   0  0  0  0  0  0  0  0  0  0  0  0
  178.4790  172.0740  135.9510 C   0  0  0  0  0  0  0  0  0  0  0  0
  179.3220  171.7300  139.1010 C   0  0  0  0  0  0  0  0  0  0  0  0
  178.2950  170.6410  139.4090 C   0  0  0  0  0  0  0  0  0  0  0  0
  178.9380  169.4570  139.8820 O   0  0  0  0  0  0  0  0  0  0  0  0
  179.2340  166.3770  137.0960 C   0  0  0  0  0  0  0  0  0  0  0  0
  180.0830  166.3490  138.2000 C   0  0  0  0  0  0  0  0  0  0  0  0
  180.0190  167.3610  139.1650 C   0  0  0  0  0  0  0  0  0  0  0  0
  179.1070  168.4070  139.0240 C   0  0  0  0  0  0  0  0  0  0  0  0
  178.2530  168.4210  137.9180 C   0  0  0  0  0  0  0  0  0  0  0  0
  178.3150  167.4130  136.9550 C   0  0  0  0  0  0  0  0  0  0  0  0
  1 16  1  0
  1  9  1  0
  2  3  2  0
  2  1  1  0
  3  4  1  0
  4  9  1  0
  4  5  2  0
  5  6  1  0
  6  7  2  0
  8  7  1  0
  9  8  2  0
 10  2  1  1
 11 10  1  0
 12 11  1  0
 13 12  1  0
 13 14  1  0
 14 15  1  0
 15 10  1  0
 16 17  1  0
 17 18  1  0
 19 20  2  0
 20 21  1  0
 22 21  2  0
 22 18  1  0
 23 22  1  0
 24 19  1  0
 24 23  2  0
M  END
$$$$
