lig_222
     RDKit          3D

 23 26  0  0  0  0  0  0  0  0999 V2000
   -2.0480   10.5250   16.0360 C   0  0  0  0  0  0  0  0  0  0  0  0
   -3.2980   10.6390   15.5440 N   0  0  0  0  0  0  0  0  0  0  0  0
   -4.0990    9.5640   15.5390 C   0  0  0  0  0  0  0  0  0  0  0  0
   -3.6180    8.3440   16.0350 C   0  0  0  0  0  0  0  0  0  0  0  0
   -4.1960    7.0380   16.1750 C   0  0  0  0  0  0  0  0  0  0  0  0
   -3.3280    6.1200   16.7380 C   0  0  0  0  0  0  0  0  0  0  0  0
   -1.8120    6.8390   17.0890 S   0  0  0  0  0  0  0  0  0  0  0  0
   -2.3180    8.3580   16.5070 C   0  0  0  0  0  0  0  0  0  0  0  0
   -1.4860    9.4100   16.5330 N   0  0  0  0  0  0  0  0  0  0  0  0
   -0.6010   15.1320   17.2270 C   0  0  0  0  0  0  0  0  0  0  0  0
   -0.5990   13.7970   16.5690 C   0  0  0  0  0  0  0  0  0  0  0  0
   -1.5040   12.8660   16.7760 N   0  0  0  0  0  0  0  0  0  0  0  0
   -1.2160   11.7340   16.0130 C   0  0  0  0  0  0  0  0  0  0  0  0
   -0.0780   11.8500   15.2330 C   0  0  0  0  0  0  0  0  0  0  0  0
    0.6420   13.3890   15.4550 S   0  0  0  0  0  0  0  0  0  0  0  0
   -5.3740    9.7330   15.0180 N   0  0  0  0  0  0  0  0  0  0  0  0
   -3.5660    4.6670   17.0390 C   0  0  0  0  0  0  0  0  0  0  0  0
   -5.0320    4.3360   17.2100 C   0  0  0  0  0  0  0  0  0  0  0  0
   -5.6240    3.3080   16.4610 C   0  0  0  0  0  0  0  0  0  0  0  0
   -6.9790    3.0110   16.6140 C   0  0  0  0  0  0  0  0  0  0  0  0
   -7.7570    3.7400   17.5130 C   0  0  0  0  0  0  0  0  0  0  0  0
   -7.1800    4.7660   18.2590 C   0  0  0  0  0  0  0  0  0  0  0  0
   -5.8250    5.0630   18.1090 C   0  0  0  0  0  0  0  0  0  0  0  0
  1  9  1  0
  2  1  2  0
  3  2  1  0
  3  4  2  0
  4  5  1  0
  4  8  1  0
  5  6  2  0
  6 17  1  0
  6  7  1  0
  8  9  2  0
  8  7  1  0
 11 12  2  0
 11 10  1  0
 13  1  1  0
 13 12  1  0
 14 15  1  0
 14 13  2  0
 15 11  1  0
 16  3  1  0
 17 18  1  0
 18 23  1  0
 19 20  1  0
 19 18  2  0
 20 21  2  0
 21 22  1  0
 23 22  2  0
M  END
$$$$
