lig_308
     RDKit          3D

 21 24  0  0  0  0  0  0  0  0999 V2000
   -2.8790    8.2300   16.3650 C   0  0  0  0  0  0  0  0  0  0  0  0
   -1.6160    8.5460   16.5670 N   0  0  0  0  0  0  0  0  0  0  0  0
   -0.8790    7.5680   17.1660 C   0  0  0  0  0  0  0  0  0  0  0  0
    0.4460    7.6510   17.4810 N   0  0  0  0  0  0  0  0  0  0  0  0
    0.8000    6.4610   18.0690 C   0  0  0  0  0  0  0  0  0  0  0  0
   -0.2140    5.6200   18.1510 N   0  0  0  0  0  0  0  0  0  0  0  0
   -1.2430    6.3060   17.5950 C   0  0  0  0  0  0  0  0  0  0  0  0
   -2.7130    5.9890   17.3400 C   0  0  0  0  0  0  0  0  0  0  0  0
   -3.4680    4.9460   17.5740 N   0  0  0  0  0  0  0  0  0  0  0  0
   -4.6890    5.3570   17.0800 C   0  0  0  0  0  0  0  0  0  0  0  0
   -4.7130    6.5970   16.5560 N   0  0  0  0  0  0  0  0  0  0  0  0
   -3.4350    6.9840   16.7360 N   0  0  0  0  0  0  0  0  0  0  0  0
   -5.9540    4.4390   17.1290 C   0  0  0  0  0  0  0  0  0  0  0  0
   -7.1330    4.7390   17.7820 C   0  0  0  0  0  0  0  0  0  0  0  0
   -8.0050    3.6430   17.5710 C   0  0  0  0  0  0  0  0  0  0  0  0
   -7.3060    2.7430   16.8040 C   0  0  0  0  0  0  0  0  0  0  0  0
   -6.0640    3.2130   16.5290 O   0  0  0  0  0  0  0  0  0  0  0  0
   -3.8420    9.2000   15.7260 C   0  0  0  0  0  0  0  0  0  0  0  0
   -3.1710   10.5110   15.3160 C   0  0  0  0  0  0  0  0  0  0  0  0
   -5.3280   11.6180   16.0040 C   0  0  0  0  0  0  0  0  0  0  0  0
   -3.8120   11.7370   15.9710 C   0  0  0  0  0  0  0  0  0  0  0  0
  1  2  2  0
  1 12  1  0
  2  3  1  0
  3  4  1  0
  3  7  2  0
  4  5  1  0
  5  6  2  0
  7  6  1  0
  8  9  2  0
  8  7  1  0
 10 13  1  0
 10  9  1  0
 11 12  1  0
 11 10  2  0
 12  8  1  0
 13 14  2  0
 15 14  1  0
 16 15  2  0
 17 16  1  0
 17 13  1  0
 18  1  1  0
 19 18  1  0
 19 21  1  0
 21 20  1  0
M  END
$$$$
