lig_069
     RDKit          3D

 36 40  0  0  1  0  0  0  0  0999 V2000
    1.3890  -17.9360   14.7310 C   0  0  1  0  0  0  0  0  0  0  0  0
    2.5570  -16.9860   14.4430 C   0  0  0  0  0  0  0  0  0  0  0  0
    2.6890  -16.6230   12.9630 C   0  0  0  0  0  0  0  0  0  0  0  0
    1.3390  -16.4650   12.2470 C   0  0  1  0  0  0  0  0  0  0  0  0
    0.2030  -16.1900   13.2360 C   0  0  0  0  0  0  0  0  0  0  0  0
    0.0530  -17.3150   14.2640 C   0  0  0  0  0  0  0  0  0  0  0  0
    1.4180  -15.4170   11.2390 N   0  0  0  0  0  0  0  0  0  0  0  0
    0.5770  -15.4010   10.1470 C   0  0  0  0  0  0  0  0  0  0  0  0
   -0.2320  -16.2860    9.8910 O   0  0  0  0  0  0  0  0  0  0  0  0
    0.6300  -14.1980    9.3020 C   0  0  0  0  0  0  0  0  0  0  0  0
    1.4120  -14.1800    8.1210 C   0  0  0  0  0  0  0  0  0  0  0  0
    1.4910  -13.0590    7.2410 C   0  0  0  0  0  0  0  0  0  0  0  0
    0.8040  -11.8470    7.4660 C   0  0  0  0  0  0  0  0  0  0  0  0
    0.0430  -11.8240    8.6480 C   0  0  0  0  0  0  0  0  0  0  0  0
   -0.6990  -10.8320    9.1640 N   0  0  0  0  0  0  0  0  0  0  0  0
   -1.1650  -11.3170   10.3300 N   0  0  0  0  0  0  0  0  0  0  0  0
   -1.9780  -10.4690   11.1690 C   0  0  0  0  0  0  0  0  0  0  0  0
   -0.7880  -12.6030   10.5930 C   0  0  0  0  0  0  0  0  0  0  0  0
   -0.0240  -12.9790    9.5190 C   0  0  0  0  0  0  0  0  0  0  0  0
    1.5710  -19.3490   14.1230 C   0  0  0  0  0  0  0  0  0  0  0  0
    0.5050  -19.7720   13.0940 C   0  0  0  0  0  0  0  0  0  0  0  0
   -2.7620  -24.8720   15.7370 C   0  0  0  0  0  0  0  0  0  0  0  0
   -3.1260  -24.0500   14.7800 N   0  0  0  0  0  0  0  0  0  0  0  0
   -2.0060  -23.4530   14.2280 C   0  0  0  0  0  0  0  0  0  0  0  0
   -0.8050  -23.8280   14.7950 C   0  0  0  0  0  0  0  0  0  0  0  0
   -1.0800  -24.9610   16.0440 S   0  0  0  0  0  0  0  0  0  0  0  0
    0.5590  -23.3570   14.4230 C   0  0  0  0  0  0  0  0  0  0  0  0
    0.6660  -21.8210   14.4040 C   0  0  0  0  0  0  0  0  0  0  0  0
    0.0180  -21.1610   13.2430 N   0  0  0  0  0  0  0  0  0  0  0  0
   -1.4630  -21.1410   13.3670 C   0  0  0  0  0  0  0  0  0  0  0  0
   -2.1580  -22.4860   13.1060 C   0  0  0  0  0  0  0  0  0  0  0  0
   -3.6220  -25.5910   16.4600 O   0  0  0  0  0  0  0  0  0  0  0  0
   -5.6940  -25.5450   17.6210 C   0  0  0  0  0  0  0  0  0  0  0  0
   -4.3270  -24.8770   17.4830 C   0  0  1  0  0  0  0  0  0  0  0  0
   -3.5740  -24.9400   18.8100 C   0  0  0  0  0  0  0  0  0  0  0  0
   -2.8050  -26.0620   18.8520 F   0  0  0  0  0  0  0  0  0  0  0  0
  1 20  1  6
  2  1  1  0
  3  2  1  0
  4  7  1  6
  4  3  1  0
  4  5  1  0
  5  6  1  0
  6  1  1  0
  8  7  1  0
  9  8  2  0
 10 19  1  0
 10  8  1  0
 11 10  2  0
 12 13  2  0
 12 11  1  0
 13 14  1  0
 14 15  2  0
 14 19  1  0
 15 16  1  0
 16 18  1  0
 16 17  1  0
 19 18  2  0
 21 29  1  0
 21 20  1  0
 22 26  1  0
 22 32  1  0
 23 22  2  0
 24 23  1  0
 24 25  2  0
 25 26  1  0
 27 25  1  0
 28 27  1  0
 29 30  1  0
 29 28  1  0
 31 30  1  0
 31 24  1  0
 32 34  1  0
 34 33  1  1
 34 35  1  0
 35 36  1  0
M  END
$$$$
