lig_005
     RDKit          3D

 30 34  0  0  0  0  0  0  0  0999 V2000
    7.0230    3.7450  -13.6190 N   0  0  0  0  0  0  0  0  0  0  0  0
    8.4880    3.8240  -13.4330 C   0  0  0  0  0  0  0  0  0  0  0  0
    8.9470    5.3010  -13.3540 C   0  0  0  0  0  0  0  0  0  0  0  0
    8.2530    6.0350  -12.2790 N   0  0  0  0  0  0  0  0  0  0  0  0
    6.7980    5.9590  -12.4910 C   0  0  0  0  0  0  0  0  0  0  0  0
    6.2880    4.4990  -12.5730 C   0  0  0  0  0  0  0  0  0  0  0  0
    7.1900    0.9090  -16.9570 C   0  0  0  0  0  0  0  0  0  0  0  0
    6.4260   -0.0450  -16.4980 N   0  0  0  0  0  0  0  0  0  0  0  0
    6.0610    0.4440  -15.2680 C   0  0  0  0  0  0  0  0  0  0  0  0
    5.2430   -0.1240  -14.2850 C   0  0  0  0  0  0  0  0  0  0  0  0
    5.0310    0.6040  -13.1140 C   0  0  0  0  0  0  0  0  0  0  0  0
    5.6290    1.8590  -12.9300 C   0  0  0  0  0  0  0  0  0  0  0  0
    6.4800    2.4700  -13.8830 C   0  0  0  0  0  0  0  0  0  0  0  0
    6.6350    1.6940  -15.0470 C   0  0  0  0  0  0  0  0  0  0  0  0
    7.3800    1.9890  -16.1660 O   0  0  0  0  0  0  0  0  0  0  0  0
    7.8080    0.9410  -18.1150 O   0  0  0  0  0  0  0  0  0  0  0  0
    8.7560    7.3990  -12.0710 C   0  0  0  0  0  0  0  0  0  0  0  0
   10.1020    7.5470  -11.3940 C   0  0  0  0  0  0  0  0  0  0  0  0
   11.2840    7.5630  -12.1430 C   0  0  0  0  0  0  0  0  0  0  0  0
   12.5220    7.6930  -11.5110 C   0  0  0  0  0  0  0  0  0  0  0  0
   12.5850    7.8130  -10.1220 C   0  0  0  0  0  0  0  0  0  0  0  0
   11.4220    7.8110   -9.3340 C   0  0  0  0  0  0  0  0  0  0  0  0
   10.1870    7.6780   -9.9970 C   0  0  0  0  0  0  0  0  0  0  0  0
   11.4510    7.9350   -7.8640 C   0  0  0  0  0  0  0  0  0  0  0  0
   11.1510    6.8400   -7.0370 C   0  0  0  0  0  0  0  0  0  0  0  0
   11.1570    6.9650   -5.6450 C   0  0  0  0  0  0  0  0  0  0  0  0
   11.4630    8.1890   -5.0560 C   0  0  0  0  0  0  0  0  0  0  0  0
   11.7630    9.2880   -5.8570 C   0  0  0  0  0  0  0  0  0  0  0  0
   11.7570    9.1610   -7.2500 C   0  0  0  0  0  0  0  0  0  0  0  0
   13.8080    7.9500   -9.5200 O   0  0  0  0  0  0  0  0  0  0  0  0
  1  2  1  0
  1  6  1  0
  2  3  1  0
  3  4  1  0
  4 17  1  0
  5  4  1  0
  6  5  1  0
  7  8  2  0
  7 15  1  0
  8  9  1  0
  9 14  1  0
  9 10  2  0
 10 11  1  0
 11 12  2  0
 13  1  1  0
 13 12  1  0
 14 13  2  0
 15 14  1  0
 16  7  1  0
 17 18  1  0
 18 23  2  0
 19 20  2  0
 19 18  1  0
 20 21  1  0
 21 30  1  0
 21 22  2  0
 22 24  1  0
 23 22  1  0
 24 29  1  0
 24 25  2  0
 25 26  1  0
 26 27  2  0
 28 27  1  0
 29 28  2  0
M  END
$$$$
