lig_266
     RDKit          3D

 29 31  0  0  0  0  0  0  0  0999 V2000
   -1.7820    4.4980   18.4680 N   0  0  0  0  0  0  0  0  0  0  0  0
   -0.8220    5.4980   18.2710 C   0  0  0  0  0  0  0  0  0  0  0  0
    0.3260    5.4450   18.7010 O   0  0  0  0  0  0  0  0  0  0  0  0
   -1.3140    6.6030   17.5210 C   0  0  0  0  0  0  0  0  0  0  0  0
   -2.5860    6.6690   17.0490 C   0  0  0  0  0  0  0  0  0  0  0  0
   -2.8190    7.8300   16.3830 N   0  0  0  0  0  0  0  0  0  0  0  0
   -1.6870    8.5180   16.4600 C   0  0  0  0  0  0  0  0  0  0  0  0
   -0.7170    7.7630   17.1020 N   0  0  0  0  0  0  0  0  0  0  0  0
    0.6820    8.0870   17.2570 C   0  0  0  0  0  0  0  0  0  0  0  0
   -3.4920    5.6570   17.2530 N   0  0  0  0  0  0  0  0  0  0  0  0
   -3.1110    4.5390   17.9970 C   0  0  0  0  0  0  0  0  0  0  0  0
   -3.9040    3.6240   18.2360 O   0  0  0  0  0  0  0  0  0  0  0  0
   -1.5040    9.8620   15.9100 C   0  0  0  0  0  0  0  0  0  0  0  0
   -1.3500   10.0260   14.5280 C   0  0  0  0  0  0  0  0  0  0  0  0
   -1.1770   11.2980   13.9820 C   0  0  0  0  0  0  0  0  0  0  0  0
   -1.1680   12.4220   14.8100 C   0  0  0  0  0  0  0  0  0  0  0  0
   -1.3430   12.2790   16.1860 C   0  0  0  0  0  0  0  0  0  0  0  0
   -1.5160   11.0000   16.7270 C   0  0  0  0  0  0  0  0  0  0  0  0
   -1.3680   13.2920   17.1050 O   0  0  0  0  0  0  0  0  0  0  0  0
   -2.5730   14.0500   17.2070 C   0  0  0  0  0  0  0  0  0  0  0  0
   -2.2280   15.5310   17.0640 C   0  0  0  0  0  0  0  0  0  0  0  0
   -2.1550   16.0070   15.6170 C   0  0  0  0  0  0  0  0  0  0  0  0
   -3.4070   15.2450   14.6070 Cl  0  0  0  0  0  0  0  0  0  0  0  0
   -1.3810    3.3170   19.2260 C   0  0  0  0  0  0  0  0  0  0  0  0
    0.7020    1.8480   19.0970 C   0  0  0  0  0  0  0  0  0  0  0  0
   -0.5650    2.3180   18.3980 C   0  0  0  0  0  0  0  0  0  0  0  0
   -4.8630    5.7710   16.7660 C   0  0  0  0  0  0  0  0  0  0  0  0
   -4.9620    5.4460   15.2740 C   0  0  0  0  0  0  0  0  0  0  0  0
   -5.6330    6.5690   14.5040 C   0  0  0  0  0  0  0  0  0  0  0  0
  1 24  1  0
  2  1  1  0
  2  3  2  0
  4  2  1  0
  5 10  1  0
  5  4  2  0
  6  7  2  0
  6  5  1  0
  7  8  1  0
  8  9  1  0
  8  4  1  0
 10 11  1  0
 11 12  2  0
 11  1  1  0
 13  7  1  0
 13 18  1  0
 14 13  2  0
 15 14  1  0
 15 16  2  0
 16 17  1  0
 17 18  2  0
 17 19  1  0
 19 20  1  0
 21 20  1  0
 22 21  1  0
 23 22  1  0
 26 25  1  0
 26 24  1  0
 27 10  1  0
 28 27  1  0
 29 28  1  0
M  END
$$$$
