lig_030
     RDKit          3D

 29 33  0  0  0  0  0  0  0  0999 V2000
  126.8930  137.3600  107.2060 N   0  0  0  0  0  0  0  0  0  0  0  0
  126.7780  138.8220  107.0130 C   0  0  0  0  0  0  0  0  0  0  0  0
  125.7120  139.2830  105.9910 C   0  0  0  0  0  0  0  0  0  0  0  0
  125.8870  138.6470  104.6710 N   0  0  0  0  0  0  0  0  0  0  0  0
  125.9350  139.4360  103.5470 C   0  0  0  0  0  0  0  0  0  0  0  0
  126.9080  139.3390  102.6420 N   0  0  0  0  0  0  0  0  0  0  0  0
  126.6880  140.4530  101.4530 S   0  0  0  0  0  0  0  0  0  0  0  0
  125.2160  141.0920  102.0540 C   0  0  0  0  0  0  0  0  0  0  0  0
  124.4050  142.1070  101.5160 C   0  0  0  0  0  0  0  0  0  0  0  0
  123.2210  142.4350  102.1810 C   0  0  0  0  0  0  0  0  0  0  0  0
  122.8540  141.7660  103.3400 C   0  0  0  0  0  0  0  0  0  0  0  0
  123.6720  140.7600  103.8670 C   0  0  0  0  0  0  0  0  0  0  0  0
  124.8950  140.4130  103.2320 C   0  0  0  0  0  0  0  0  0  0  0  0
  126.7140  137.4220  104.6830 C   0  0  0  0  0  0  0  0  0  0  0  0
  126.4720  136.6310  105.9860 C   0  0  0  0  0  0  0  0  0  0  0  0
  126.1580  136.8640  108.3810 C   0  0  0  0  0  0  0  0  0  0  0  0
  124.7910  137.5550  108.5680 C   0  0  0  0  0  0  0  0  0  0  0  0
  124.6650  140.1180  114.7690 C   0  0  0  0  0  0  0  0  0  0  0  0
  124.4100  140.4080  113.3790 N   0  0  0  0  0  0  0  0  0  0  0  0
  123.9890  141.6150  112.8980 C   0  0  0  0  0  0  0  0  0  0  0  0
  123.7630  142.7120  113.6330 F   0  0  0  0  0  0  0  0  0  0  0  0
  123.8250  141.5270  111.5360 C   0  0  0  0  0  0  0  0  0  0  0  0
  124.1710  140.2020  111.1650 C   0  0  0  0  0  0  0  0  0  0  0  0
  124.5300  139.5400  112.3280 C   0  0  0  0  0  0  0  0  0  0  0  0
  124.9450  138.1150  112.3690 C   0  0  0  0  0  0  0  0  0  0  0  0
  125.4910  137.7410  110.9770 C   0  0  0  0  0  0  0  0  0  0  0  0
  124.6650  138.2330  109.8590 N   0  0  0  0  0  0  0  0  0  0  0  0
  124.1690  139.5510  109.8590 C   0  0  0  0  0  0  0  0  0  0  0  0
  123.7560  140.1200  108.8540 O   0  0  0  0  0  0  0  0  0  0  0  0
  1 16  1  0
  2  1  1  0
  3  2  1  0
  4 14  1  0
  4  3  1  0
  5  4  1  0
  6  5  2  0
  7  8  1  0
  7  6  1  0
  8 13  1  0
  9  8  2  0
  9 10  1  0
 10 11  2  0
 11 12  1  0
 13  5  1  0
 13 12  2  0
 14 15  1  0
 15  1  1  0
 16 17  1  0
 17 27  1  0
 19 18  1  0
 20 19  1  0
 20 21  1  0
 22 20  2  0
 23 22  1  0
 23 24  2  0
 24 25  1  0
 24 19  1  0
 26 25  1  0
 27 28  1  0
 27 26  1  0
 28 23  1  0
 29 28  2  0
M  END
$$$$
