lig_452
     RDKit          3D

 23 26  0  0  0  0  0  0  0  0999 V2000
   -3.9000    4.9000   17.4680 C   0  0  0  0  0  0  0  0  0  0  0  0
   -3.5440    3.7590   18.0230 N   0  0  0  0  0  0  0  0  0  0  0  0
   -2.2320    3.6890   18.3840 C   0  0  0  0  0  0  0  0  0  0  0  0
   -1.6260    2.6170   18.9740 N   0  0  0  0  0  0  0  0  0  0  0  0
   -0.3080    2.9540   19.1720 C   0  0  0  0  0  0  0  0  0  0  0  0
   -0.0310    4.1720   18.7470 N   0  0  0  0  0  0  0  0  0  0  0  0
   -1.2180    4.6190   18.2640 C   0  0  0  0  0  0  0  0  0  0  0  0
   -1.6760    5.9210   17.6170 C   0  0  0  0  0  0  0  0  0  0  0  0
   -1.0770    7.0430   17.3140 N   0  0  0  0  0  0  0  0  0  0  0  0
   -2.0980    7.7880   16.7500 C   0  0  0  0  0  0  0  0  0  0  0  0
   -3.2920    7.1620   16.7020 N   0  0  0  0  0  0  0  0  0  0  0  0
   -2.9960    5.9700   17.2620 N   0  0  0  0  0  0  0  0  0  0  0  0
   -1.8750    9.1450   16.2550 C   0  0  0  0  0  0  0  0  0  0  0  0
   -0.6590    9.7990   16.5080 C   0  0  0  0  0  0  0  0  0  0  0  0
   -0.4350   11.0970   16.0380 C   0  0  0  0  0  0  0  0  0  0  0  0
   -1.4270   11.7510   15.3120 C   0  0  0  0  0  0  0  0  0  0  0  0
   -1.1540   13.3480   14.7340 Cl  0  0  0  0  0  0  0  0  0  0  0  0
   -2.6420   11.1190   15.0520 C   0  0  0  0  0  0  0  0  0  0  0  0
   -2.8640    9.8200   15.5220 C   0  0  0  0  0  0  0  0  0  0  0  0
   -5.3040    5.1920   16.9920 C   0  0  0  0  0  0  0  0  0  0  0  0
   -6.2560    5.5670   18.1290 C   0  0  0  0  0  0  0  0  0  0  0  0
   -7.7620    3.6240   17.5770 C   0  0  0  0  0  0  0  0  0  0  0  0
   -7.6870    5.1220   17.8250 C   0  0  0  0  0  0  0  0  0  0  0  0
  1  2  2  0
  2  3  1  0
  3  4  1  0
  4  5  1  0
  6  5  2  0
  7  3  2  0
  7  6  1  0
  8  7  1  0
  9  8  2  0
 10  9  1  0
 11 10  2  0
 11 12  1  0
 12  1  1  0
 12  8  1  0
 13 14  1  0
 13 10  1  0
 15 14  2  0
 16 15  1  0
 17 16  1  0
 18 16  2  0
 18 19  1  0
 19 13  2  0
 20  1  1  0
 20 21  1  0
 22 23  1  0
 23 21  1  0
M  END
$$$$
