lig_166
     RDKit          3D

 22 24  0  0  0  0  0  0  0  0999 V2000
   -6.0920    7.0170   13.7640 N   0  0  0  0  0  0  0  0  0  0  0  0
   -5.3000    7.6370   14.6530 C   0  0  0  0  0  0  0  0  0  0  0  0
   -4.9370    8.9090   14.5480 N   0  0  0  0  0  0  0  0  0  0  0  0
   -4.1740    9.0920   15.6540 N   0  0  0  0  0  0  0  0  0  0  0  0
   -4.0070    8.0080   16.4600 N   0  0  0  0  0  0  0  0  0  0  0  0
   -4.7280    7.0660   15.8160 C   0  0  0  0  0  0  0  0  0  0  0  0
   -3.5750   10.3460   15.9530 C   0  0  0  0  0  0  0  0  0  0  0  0
   -2.1910   10.4310   16.1660 C   0  0  0  0  0  0  0  0  0  0  0  0
   -1.6060   11.6640   16.4600 C   0  0  0  0  0  0  0  0  0  0  0  0
   -2.3940   12.8110   16.5400 C   0  0  0  0  0  0  0  0  0  0  0  0
   -3.7700   12.7320   16.3280 C   0  0  0  0  0  0  0  0  0  0  0  0
   -4.3640   11.5030   16.0350 C   0  0  0  0  0  0  0  0  0  0  0  0
   -4.8390    5.6900   16.2990 C   0  0  0  0  0  0  0  0  0  0  0  0
   -5.6840    4.9010   15.8840 O   0  0  0  0  0  0  0  0  0  0  0  0
   -3.8920    5.3670   17.2460 N   0  0  0  0  0  0  0  0  0  0  0  0
   -3.6900    4.0220   17.7170 C   0  0  0  0  0  0  0  0  0  0  0  0
   -2.2710    3.8230   18.1790 C   0  0  0  0  0  0  0  0  0  0  0  0
   -1.8320    2.5690   18.6250 C   0  0  0  0  0  0  0  0  0  0  0  0
   -0.5200    2.3970   19.0730 C   0  0  0  0  0  0  0  0  0  0  0  0
    0.3600    3.4770   19.0860 C   0  0  0  0  0  0  0  0  0  0  0  0
   -0.0680    4.7300   18.6540 C   0  0  0  0  0  0  0  0  0  0  0  0
   -1.3780    4.9040   18.2050 C   0  0  0  0  0  0  0  0  0  0  0  0
  1  2  1  0
  2  6  1  0
  3  2  2  0
  3  4  1  0
  4  7  1  0
  4  5  1  0
  6 13  1  0
  6  5  2  0
  7 12  1  0
  7  8  2  0
  8  9  1  0
  9 10  2  0
 11 10  1  0
 12 11  2  0
 13 15  1  0
 14 13  2  0
 15 16  1  0
 16 17  1  0
 17 22  1  0
 17 18  2  0
 18 19  1  0
 19 20  2  0
 21 20  1  0
 22 21  2  0
M  END
$$$$
