lig_282
     RDKit          3D

 31 35  0  0  1  0  0  0  0  0999 V2000
    0.5980  -18.7490   14.3510 C   0  0  0  0  0  0  0  0  0  0  0  0
    0.9690  -20.4250   12.6310 C   0  0  0  0  0  0  0  0  0  0  0  0
    0.6250  -20.1870   14.0360 N   0  0  0  0  0  0  0  0  0  0  0  0
   -0.6180  -20.9120   14.4110 C   0  0  2  0  0  0  0  0  0  0  0  0
   -0.8960  -21.0260   15.9500 C   0  0  0  0  0  0  0  0  0  0  0  0
   -2.1100  -21.8620   16.2390 C   0  0  0  0  0  0  0  0  0  0  0  0
   -2.8580  -21.8380   17.4160 C   0  0  0  0  0  0  0  0  0  0  0  0
   -3.9580  -22.7190   17.5880 C   0  0  0  0  0  0  0  0  0  0  0  0
   -4.3260  -23.6500   16.5990 C   0  0  0  0  0  0  0  0  0  0  0  0
   -3.5670  -23.6620   15.4570 C   0  0  0  0  0  0  0  0  0  0  0  0
   -3.6200  -24.4530   14.3110 N   0  0  0  0  0  0  0  0  0  0  0  0
   -2.5650  -24.0770   13.4440 C   0  0  0  0  0  0  0  0  0  0  0  0
   -2.2920  -24.6000   12.3780 O   0  0  0  0  0  0  0  0  0  0  0  0
   -1.9090  -23.0100   14.0730 N   0  0  0  0  0  0  0  0  0  0  0  0
   -2.5050  -22.7880   15.3040 C   0  0  0  0  0  0  0  0  0  0  0  0
   -0.7030  -22.3040   13.7050 C   0  0  0  0  0  0  0  0  0  0  0  0
    1.9700  -18.2410   14.8150 C   0  0  0  0  0  0  0  0  0  0  0  0
    2.3430  -16.8720   14.2290 C   0  0  0  0  0  0  0  0  0  0  0  0
    2.3540  -16.8020   12.7010 C   0  0  0  0  0  0  0  0  0  0  0  0
    1.7240  -15.6040   12.1920 N   0  0  0  0  0  0  0  0  0  0  0  0
    0.4630  -15.6180   11.6430 C   0  0  0  0  0  0  0  0  0  0  0  0
   -0.2350  -16.6270   11.6140 O   0  0  0  0  0  0  0  0  0  0  0  0
    0.0140  -14.3590   11.0920 C   0  0  0  0  0  0  0  0  0  0  0  0
    0.1440  -13.7820    9.8390 C   0  0  0  0  0  0  0  0  0  0  0  0
   -0.5030  -12.5150    9.8570 C   0  0  0  0  0  0  0  0  0  0  0  0
   -0.6960  -11.4990    8.9010 C   0  0  0  0  0  0  0  0  0  0  0  0
   -1.4000  -10.3440    9.2620 C   0  0  0  0  0  0  0  0  0  0  0  0
   -1.9070  -10.1940   10.5510 C   0  0  0  0  0  0  0  0  0  0  0  0
   -1.7260  -11.1900   11.5180 C   0  0  0  0  0  0  0  0  0  0  0  0
   -1.0200  -12.3370   11.1380 C   0  0  0  0  0  0  0  0  0  0  0  0
   -0.6940  -13.4580   11.8590 N   0  0  0  0  0  0  0  0  0  0  0  0
  1 17  1  0
  2  3  1  0
  3  1  1  0
  4  3  1  1
  4  5  1  0
  5  6  1  0
  6  7  1  0
  7  8  2  0
  9  8  1  0
 10  9  2  0
 11 10  1  0
 12 14  1  0
 12 11  1  0
 13 12  2  0
 14 15  1  0
 15 10  1  0
 15  6  2  0
 16 14  1  0
 16  4  1  0
 18 17  1  0
 19 18  1  0
 20 19  1  0
 21 20  1  0
 22 21  2  0
 23 21  1  0
 23 31  1  0
 24 25  1  0
 24 23  2  0
 25 30  1  0
 26 27  1  0
 26 25  2  0
 27 28  2  0
 28 29  1  0
 30 29  2  0
 30 31  1  0
M  END
$$$$
