lig_071
     RDKit          3D

 29 31  0  0  1  0  0  0  0  0999 V2000
    0.4670  -15.0740   11.2470 C   0  0  2  0  0  0  0  0  0  0  0  0
    1.9810  -15.1900   11.4960 C   0  0  0  0  0  0  0  0  0  0  0  0
    2.2520  -16.0280   12.7470 C   0  0  0  0  0  0  0  0  0  0  0  0
    1.4680  -17.3150   12.8000 C   0  0  0  0  0  0  0  0  0  0  0  0
    1.8550  -18.3100   13.7110 C   0  0  0  0  0  0  0  0  0  0  0  0
    1.1360  -19.5070   13.8250 C   0  0  0  0  0  0  0  0  0  0  0  0
    0.0180  -19.7050   13.0110 C   0  0  0  0  0  0  0  0  0  0  0  0
   -0.3820  -18.7180   12.1100 C   0  0  0  0  0  0  0  0  0  0  0  0
    0.3270  -17.5130   12.0050 C   0  0  0  0  0  0  0  0  0  0  0  0
   -0.1180  -16.4850   10.9910 C   0  0  0  0  0  0  0  0  0  0  0  0
    0.0700  -14.1090   10.1940 N   0  0  0  0  0  0  0  0  0  0  0  0
   -0.6460  -12.9210   10.6910 C   0  0  0  0  0  0  0  0  0  0  0  0
   -0.4210  -10.3930   10.9680 C   0  0  0  0  0  0  0  0  0  0  0  0
   -0.2590  -11.5870   10.0380 C   0  0  0  0  0  0  0  0  0  0  0  0
    1.1460  -13.7240    9.2660 C   0  0  0  0  0  0  0  0  0  0  0  0
    1.1050  -14.5680    7.9860 C   0  0  0  0  0  0  0  0  0  0  0  0
    0.0180  -14.1470    7.0090 C   0  0  0  0  0  0  0  0  0  0  0  0
    1.5820  -20.5790   14.7890 C   0  0  0  0  0  0  0  0  0  0  0  0
    1.4920  -21.9730   14.1610 C   0  0  0  0  0  0  0  0  0  0  0  0
    0.4300  -22.8150   14.8250 C   0  0  0  0  0  0  0  0  0  0  0  0
   -0.4770  -22.2330   15.7240 C   0  0  0  0  0  0  0  0  0  0  0  0
   -1.4460  -23.0140   16.3550 C   0  0  0  0  0  0  0  0  0  0  0  0
   -1.5080  -24.3860   16.0970 C   0  0  0  0  0  0  0  0  0  0  0  0
   -0.6100  -24.9770   15.2050 C   0  0  0  0  0  0  0  0  0  0  0  0
    0.3580  -24.1930   14.5760 C   0  0  0  0  0  0  0  0  0  0  0  0
   -2.5590  -25.2140   16.7390 C   0  0  0  0  0  0  0  0  0  0  0  0
   -2.3620  -25.5440   18.2010 C   0  0  0  0  0  0  0  0  0  0  0  0
   -3.6320  -25.6750   16.1640 N   0  0  0  0  0  0  0  0  0  0  0  0
   -3.7480  -25.2590   14.8340 O   0  0  0  0  0  0  0  0  0  0  0  0
  1 11  1  6
  1  2  1  0
  2  3  1  0
  3  4  1  0
  4  5  1  0
  5  6  2  0
  6 18  1  0
  7  6  1  0
  8  7  2  0
  9  8  1  0
  9  4  2  0
 10  1  1  0
 10  9  1  0
 11 12  1  0
 14 12  1  0
 14 13  1  0
 15 11  1  0
 16 15  1  0
 17 16  1  0
 19 18  1  0
 19 20  1  0
 20 21  1  0
 21 22  2  0
 23 22  1  0
 23 26  1  0
 24 23  2  0
 25 20  2  0
 25 24  1  0
 26 27  1  0
 28 26  2  0
 29 28  1  0
M  END
$$$$
