lig_001
     RDKit          3D

 27 31  0  0  1  0  0  0  0  0999 V2000
  190.8740  174.5790  173.2930 C   0  0  0  0  0  0  0  0  0  0  0  0
  190.6270  173.2460  172.9640 C   0  0  0  0  0  0  0  0  0  0  0  0
  189.3160  172.7950  172.8500 C   0  0  0  0  0  0  0  0  0  0  0  0
  188.2310  173.6710  173.0330 C   0  0  0  0  0  0  0  0  0  0  0  0
  188.4490  175.0480  173.2940 C   0  0  0  0  0  0  0  0  0  0  0  0
  189.7880  175.4570  173.4970 C   0  0  0  0  0  0  0  0  0  0  0  0
  187.2400  176.0290  173.4340 C   0  0  2  0  0  0  0  0  0  0  0  0
  186.9700  176.2220  174.9600 C   0  0  0  0  0  0  0  0  0  0  0  0
  185.8360  175.3480  175.5230 C   0  0  0  0  0  0  0  0  0  0  0  0
  185.7690  174.0300  174.9070 N   0  0  0  0  0  0  0  0  0  0  0  0
  185.7360  174.0160  173.4200 C   0  0  2  0  0  0  0  0  0  0  0  0
  186.8460  173.0600  172.9560 C   0  0  0  0  0  0  0  0  0  0  0  0
  185.9550  175.4140  172.7680 C   0  0  2  0  0  0  0  0  0  0  0  0
  186.0580  175.3480  171.2210 C   0  0  0  0  0  0  0  0  0  0  0  0
  186.3630  176.7000  170.5920 C   0  0  0  0  0  0  0  0  0  0  0  0
  187.5570  177.3230  171.2710 C   0  0  0  0  0  0  0  0  0  0  0  0
  188.4770  177.8130  170.6210 O   0  0  0  0  0  0  0  0  0  0  0  0
  187.4880  177.4180  172.7790 C   0  0  0  0  0  0  0  0  0  0  0  0
  193.2570  174.4880  172.7220 N   0  0  0  0  0  0  0  0  0  0  0  0
  192.2680  175.0660  173.4680 C   0  0  0  0  0  0  0  0  0  0  0  0
  192.5170  175.9950  174.2310 O   0  0  0  0  0  0  0  0  0  0  0  0
  190.0100  176.7300  173.9610 O   0  0  0  0  0  0  0  0  0  0  0  0
  184.7630  176.1880  173.0340 O   0  0  0  0  0  0  0  0  0  0  0  0
  184.8010  173.1310  175.5380 C   0  0  0  0  0  0  0  0  0  0  0  0
  185.4040  171.8870  176.1250 C   0  0  0  0  0  0  0  0  0  0  0  0
  185.2150  170.5450  175.4630 C   0  0  0  0  0  0  0  0  0  0  0  0
  184.5070  170.8490  176.7520 C   0  0  0  0  0  0  0  0  0  0  0  0
  1 20  1  0
  1  6  2  0
  2  1  1  0
  3  2  2  0
  3  4  1  0
  4  5  2  0
  5  7  1  0
  5  6  1  0
  6 22  1  0
  7 18  1  6
  7  8  1  0
  8  9  1  0
 10  9  1  0
 10 24  1  0
 11 12  1  6
 11 10  1  0
 12  4  1  0
 13 23  1  6
 13 11  1  0
 13  7  1  0
 14 13  1  0
 15 14  1  0
 15 16  1  0
 16 18  1  0
 17 16  2  0
 19 20  1  0
 20 21  2  0
 24 25  1  0
 25 27  1  0
 26 25  1  0
 26 27  1  0
M  END
$$$$
