lig_055
     RDKit          3D

 30 33  0  0  1  0  0  0  0  0999 V2000
    1.4490    4.2540   19.3750 C   0  0  0  0  0  0  0  0  0  0  0  0
    0.1610    4.6600   18.7000 C   0  0  0  0  0  0  0  0  0  0  0  0
   -0.7960    3.8970   18.6890 O   0  0  0  0  0  0  0  0  0  0  0  0
    0.2350    5.9360   18.1760 N   0  0  0  0  0  0  0  0  0  0  0  0
   -0.7940    6.5960   17.4840 C   0  0  0  0  0  0  0  0  0  0  0  0
   -0.5330    7.8820   17.0590 C   0  0  0  0  0  0  0  0  0  0  0  0
   -1.5410    8.5400   16.3820 C   0  0  0  0  0  0  0  0  0  0  0  0
   -2.7340    7.9580   16.1510 N   0  0  0  0  0  0  0  0  0  0  0  0
   -2.9100    6.6920   16.5850 C   0  0  0  0  0  0  0  0  0  0  0  0
   -4.1790    6.0470   16.3210 N   0  0  0  0  0  0  0  0  0  0  0  0
   -4.4230    4.7730   16.7470 N   0  0  0  0  0  0  0  0  0  0  0  0
   -5.6620    4.4900   16.3490 C   0  0  0  0  0  0  0  0  0  0  0  0
   -6.2530    3.1650   16.6540 C   0  0  0  0  0  0  0  0  0  0  0  0
   -6.2470    5.5650   15.6590 C   0  0  0  0  0  0  0  0  0  0  0  0
   -5.2890    6.5580   15.6430 C   0  0  0  0  0  0  0  0  0  0  0  0
   -5.3640    7.9130   15.0410 C   0  0  0  0  0  0  0  0  0  0  0  0
   -1.9640    5.9990   17.2500 N   0  0  0  0  0  0  0  0  0  0  0  0
   -1.3950    9.9190   15.8790 C   0  0  0  0  0  0  0  0  0  0  0  0
   -1.2740   10.1730   14.5030 C   0  0  0  0  0  0  0  0  0  0  0  0
   -1.1440   11.4750   14.0150 C   0  0  0  0  0  0  0  0  0  0  0  0
   -1.1260   12.5580   14.8960 C   0  0  0  0  0  0  0  0  0  0  0  0
   -1.2340   12.3390   16.2660 C   0  0  0  0  0  0  0  0  0  0  0  0
   -1.3660   11.0280   16.7450 C   0  0  0  0  0  0  0  0  0  0  0  0
   -1.2310   13.2940   17.2440 O   0  0  0  0  0  0  0  0  0  0  0  0
   -1.1420   14.6670   16.8580 C   0  0  2  0  0  0  0  0  0  0  0  0
    0.3110   15.1120   17.0390 C   0  0  0  0  0  0  0  0  0  0  0  0
    0.2850   16.0380   18.2450 C   0  0  0  0  0  0  0  0  0  0  0  0
   -1.0440   16.6620   18.2420 N   0  0  0  0  0  0  0  0  0  0  0  0
   -1.1040   17.8090   17.3340 C   0  0  0  0  0  0  0  0  0  0  0  0
   -1.9420   15.5790   17.8040 C   0  0  0  0  0  0  0  0  0  0  0  0
  2  1  1  0
  3  2  2  0
  4  2  1  0
  5  4  1  0
  6  5  2  0
  7  6  1  0
  8  7  2  0
  8  9  1  0
  9 17  2  0
 10  9  1  0
 10 11  1  0
 12 13  1  0
 12 11  2  0
 14 12  1  0
 15 14  2  0
 15 10  1  0
 16 15  1  0
 17  5  1  0
 18  7  1  0
 18 23  1  0
 19 18  2  0
 20 19  1  0
 20 21  2  0
 21 22  1  0
 22 23  2  0
 22 24  1  0
 25 26  1  0
 25 24  1  1
 25 30  1  0
 26 27  1  0
 28 27  1  0
 29 28  1  0
 30 28  1  0
M  END
$$$$
