lig_016
     RDKit          3D

 24 27  0  0  1  0  0  0  0  0999 V2000
  181.4640  161.1570  137.0720 C   0  0  0  0  0  0  0  0  0  0  0  0
  182.1410  161.4980  138.2390 C   0  0  0  0  0  0  0  0  0  0  0  0
  181.6250  162.4860  139.0790 C   0  0  0  0  0  0  0  0  0  0  0  0
  180.4290  163.1470  138.7610 C   0  0  0  0  0  0  0  0  0  0  0  0
  179.7410  162.8280  137.5730 C   0  0  0  0  0  0  0  0  0  0  0  0
  180.2730  161.8190  136.7500 C   0  0  0  0  0  0  0  0  0  0  0  0
  178.4590  163.5760  137.2610 C   0  0  2  0  0  0  0  0  0  0  0  0
  177.7130  163.1540  136.0020 C   0  0  0  0  0  0  0  0  0  0  0  0
  176.8660  164.3870  135.7600 C   0  0  1  0  0  0  0  0  0  0  0  0
  177.7740  165.4730  136.0140 O   0  0  0  0  0  0  0  0  0  0  0  0
  178.6720  165.0030  137.0070 N   0  0  0  0  0  0  0  0  0  0  0  0
  179.2430  165.9200  137.8960 C   0  0  0  0  0  0  0  0  0  0  0  0
  179.2570  167.2820  137.5170 C   0  0  0  0  0  0  0  0  0  0  0  0
  179.8150  168.2820  138.3170 C   0  0  0  0  0  0  0  0  0  0  0  0
  180.3860  167.9460  139.5320 C   0  0  0  0  0  0  0  0  0  0  0  0
  180.3950  166.6150  139.9380 C   0  0  0  0  0  0  0  0  0  0  0  0
  179.8380  165.5910  139.1340 C   0  0  0  0  0  0  0  0  0  0  0  0
  179.8690  164.1900  139.6990 C   0  0  0  0  0  0  0  0  0  0  0  0
  181.3000  160.3030  134.8590 C   0  0  0  0  0  0  0  0  0  0  0  0
  181.8470  160.2040  136.1690 O   0  0  0  0  0  0  0  0  0  0  0  0
  176.3310  164.4460  134.3180 C   0  0  0  0  0  0  0  0  0  0  0  0
  177.3640  164.3790  133.2610 N   0  0  0  0  0  0  0  0  0  0  0  0
  177.6250  165.6820  132.6530 C   0  0  0  0  0  0  0  0  0  0  0  0
  176.9680  163.4170  132.2290 C   0  0  0  0  0  0  0  0  0  0  0  0
  1  2  1  0
  2  3  2  0
  4  3  1  0
  4 18  1  0
  5  4  2  0
  6  1  2  0
  6  5  1  0
  7  8  1  6
  7  5  1  0
  9 21  1  6
  9  8  1  0
  9 10  1  0
 10 11  1  0
 11  7  1  0
 11 12  1  0
 12 17  1  0
 13 12  2  0
 13 14  1  0
 14 15  2  0
 15 16  1  0
 17 18  1  0
 17 16  2  0
 19 20  1  0
 20  1  1  0
 22 21  1  0
 23 22  1  0
 24 22  1  0
M  END
$$$$
