lig_004
     RDKit          3D

 26 29  0  0  1  0  0  0  0  0999 V2000
  126.5810  136.7650  106.0330 C   0  0  0  0  0  0  0  0  0  0  0  0
  126.1170  140.9740  101.3300 C   0  0  0  0  0  0  0  0  0  0  0  0
  125.8700  142.0810  102.1370 C   0  0  0  0  0  0  0  0  0  0  0  0
  125.8200  141.9370  103.5270 C   0  0  0  0  0  0  0  0  0  0  0  0
  126.0210  140.6860  104.1300 C   0  0  0  0  0  0  0  0  0  0  0  0
  126.2490  139.5640  103.3200 C   0  0  0  0  0  0  0  0  0  0  0  0
  126.3060  139.7250  101.9260 C   0  0  0  0  0  0  0  0  0  0  0  0
  126.4870  138.1930  103.9080 C   0  0  0  0  0  0  0  0  0  0  0  0
  126.0580  138.0620  105.3810 C   0  0  2  0  0  0  0  0  0  0  0  0
  126.5570  139.2840  106.1670 C   0  0  0  0  0  0  0  0  0  0  0  0
  125.9310  140.5680  105.6290 C   0  0  0  0  0  0  0  0  0  0  0  0
  125.3500  141.8850   99.2730 C   0  0  0  0  0  0  0  0  0  0  0  0
  126.1960  140.9740   99.9640 O   0  0  0  0  0  0  0  0  0  0  0  0
  126.7200  136.8700  107.5600 C   0  0  0  0  0  0  0  0  0  0  0  0
  125.6150  136.2050  108.2720 N   0  0  0  0  0  0  0  0  0  0  0  0
  124.3360  136.9260  108.0570 C   0  0  0  0  0  0  0  0  0  0  0  0
  124.2090  138.2900  108.7810 C   0  0  0  0  0  0  0  0  0  0  0  0
  124.4760  138.1380  110.2260 N   0  0  0  0  0  0  0  0  0  0  0  0
  125.7540  137.4510  110.5080 C   0  0  0  0  0  0  0  0  0  0  0  0
  125.8320  136.1110  109.7380 C   0  0  0  0  0  0  0  0  0  0  0  0
  124.3370  139.3450  110.9410 C   0  0  0  0  0  0  0  0  0  0  0  0
  124.6860  139.3900  112.2930 C   0  0  0  0  0  0  0  0  0  0  0  0
  124.5650  140.5810  113.0080 C   0  0  0  0  0  0  0  0  0  0  0  0
  124.1040  141.7150  112.3590 C   0  0  0  0  0  0  0  0  0  0  0  0
  123.7930  141.6030  111.0180 C   0  0  0  0  0  0  0  0  0  0  0  0
  123.9040  140.4580  110.3070 N   0  0  0  0  0  0  0  0  0  0  0  0
  1 14  1  0
  2  7  2  0
  2  3  1  0
  3  4  2  0
  4  5  1  0
  5 11  1  0
  6  8  1  0
  6  5  2  0
  7  6  1  0
  8  9  1  0
  9  1  1  1
  9 10  1  0
 11 10  1  0
 12 13  1  0
 13  2  1  0
 14 15  1  0
 15 20  1  0
 16 15  1  0
 16 17  1  0
 17 18  1  0
 18 19  1  0
 18 21  1  0
 20 19  1  0
 21 22  2  0
 22 23  1  0
 24 23  2  0
 25 24  1  0
 26 21  1  0
 26 25  2  0
M  END
$$$$
