lig_020
     RDKit          3D

 27 30  0  0  0  0  0  0  0  0999 V2000
  181.1570  160.9340  136.9480 C   0  0  0  0  0  0  0  0  0  0  0  0
  180.9320  160.9060  135.6150 C   0  0  0  0  0  0  0  0  0  0  0  0
  182.0250  160.3750  134.7510 C   0  0  0  0  0  0  0  0  0  0  0  0
  182.6800  159.1660  135.0360 C   0  0  0  0  0  0  0  0  0  0  0  0
  183.6970  158.6970  134.2020 C   0  0  0  0  0  0  0  0  0  0  0  0
  184.0650  159.4240  133.0730 C   0  0  0  0  0  0  0  0  0  0  0  0
  183.4100  160.6170  132.7670 C   0  0  0  0  0  0  0  0  0  0  0  0
  182.3820  161.0930  133.5920 C   0  0  0  0  0  0  0  0  0  0  0  0
  181.5620  162.6210  133.1330 S   0  0  0  0  0  0  0  0  0  0  0  0
  179.9380  162.3540  133.8460 C   0  0  0  0  0  0  0  0  0  0  0  0
  178.8370  162.9610  133.2270 C   0  0  0  0  0  0  0  0  0  0  0  0
  177.5450  162.7320  133.7050 C   0  0  0  0  0  0  0  0  0  0  0  0
  177.3540  161.8820  134.7900 C   0  0  0  0  0  0  0  0  0  0  0  0
  175.7600  161.5730  135.3620 Cl  0  0  0  0  0  0  0  0  0  0  0  0
  178.4420  161.2770  135.4190 C   0  0  0  0  0  0  0  0  0  0  0  0
  179.7480  161.5390  134.9800 C   0  0  0  0  0  0  0  0  0  0  0  0
  180.3440  161.5620  138.0540 C   0  0  0  0  0  0  0  0  0  0  0  0
  180.5360  163.0890  138.1580 C   0  0  0  0  0  0  0  0  0  0  0  0
  178.6170  166.1710  137.1840 N   0  0  0  0  0  0  0  0  0  0  0  0
  178.2760  164.7870  136.8000 C   0  0  0  0  0  0  0  0  0  0  0  0
  178.2150  163.8280  138.0110 C   0  0  0  0  0  0  0  0  0  0  0  0
  179.4410  163.8030  138.8420 N   0  0  0  0  0  0  0  0  0  0  0  0
  179.7790  165.1960  139.1950 C   0  0  0  0  0  0  0  0  0  0  0  0
  179.8460  166.1800  138.0000 C   0  0  0  0  0  0  0  0  0  0  0  0
  178.7250  167.0230  135.9900 C   0  0  0  0  0  0  0  0  0  0  0  0
  179.1630  166.2760  134.7200 C   0  0  0  0  0  0  0  0  0  0  0  0
  180.5720  166.3970  134.5350 O   0  0  0  0  0  0  0  0  0  0  0  0
  1 17  1  0
  2  1  2  0
  3  4  2  0
  3  2  1  0
  5  4  1  0
  6  5  2  0
  7  6  1  0
  7  8  2  0
  8  3  1  0
  9  8  1  0
  9 10  1  0
 10 16  2  0
 11 12  2  0
 11 10  1  0
 12 13  1  0
 13 14  1  0
 13 15  2  0
 16 15  1  0
 16  2  1  0
 17 18  1  0
 18 22  1  0
 19 24  1  0
 20 19  1  0
 20 21  1  0
 21 22  1  0
 22 23  1  0
 24 23  1  0
 25 19  1  0
 26 25  1  0
 27 26  1  0
M  END
$$$$
