lig_005
     RDKit          3D

 30 34  0  0  0  0  0  0  0  0999 V2000
    9.4330    6.7720  -10.2880 N   0  0  0  0  0  0  0  0  0  0  0  0
   10.3180    7.9240  -10.0610 C   0  0  0  0  0  0  0  0  0  0  0  0
   11.4990    7.6400   -9.1360 C   0  0  0  0  0  0  0  0  0  0  0  0
   11.0530    7.0870   -7.7710 C   0  0  0  0  0  0  0  0  0  0  0  0
    9.6460    6.4770   -7.8220 C   0  0  0  0  0  0  0  0  0  0  0  0
    9.4140    5.8090   -9.1740 C   0  0  0  0  0  0  0  0  0  0  0  0
   11.2250    8.0780   -6.6540 C   0  0  0  0  0  0  0  0  0  0  0  0
   11.1040    9.3860   -6.9330 N   0  0  0  0  0  0  0  0  0  0  0  0
   11.2890   10.0540   -5.7380 O   0  0  0  0  0  0  0  0  0  0  0  0
   11.5160    9.1580   -4.7450 C   0  0  0  0  0  0  0  0  0  0  0  0
   11.7420    9.4660   -3.4080 C   0  0  0  0  0  0  0  0  0  0  0  0
   11.9530    8.3760   -2.5670 C   0  0  0  0  0  0  0  0  0  0  0  0
   12.1780    8.5960   -1.2650 F   0  0  0  0  0  0  0  0  0  0  0  0
   11.9400    7.0640   -3.0370 C   0  0  0  0  0  0  0  0  0  0  0  0
   11.7080    6.7930   -4.3930 C   0  0  0  0  0  0  0  0  0  0  0  0
   11.4890    7.8740   -5.2680 C   0  0  0  0  0  0  0  0  0  0  0  0
    9.7210    6.1120  -11.5770 C   0  0  0  0  0  0  0  0  0  0  0  0
    8.5820    6.2510  -12.6040 C   0  0  0  0  0  0  0  0  0  0  0  0
    5.9460    4.7020  -12.2720 C   0  0  0  0  0  0  0  0  0  0  0  0
    7.1150    4.2220  -13.0960 C   0  0  0  0  0  0  0  0  0  0  0  0
    6.8890    3.0040  -13.6900 N   0  0  0  0  0  0  0  0  0  0  0  0
    7.8370    2.4880  -14.3970 C   0  0  0  0  0  0  0  0  0  0  0  0
    9.0560    3.0870  -14.6100 N   0  0  0  0  0  0  0  0  0  0  0  0
    9.3080    4.3480  -14.1250 C   0  0  0  0  0  0  0  0  0  0  0  0
   10.3240    4.9910  -14.3820 O   0  0  0  0  0  0  0  0  0  0  0  0
    8.2510    4.9290  -13.2510 C   0  0  0  0  0  0  0  0  0  0  0  0
   10.0120    2.4390  -15.4930 C   0  0  0  0  0  0  0  0  0  0  0  0
   10.1790    0.9620  -15.1420 C   0  0  0  0  0  0  0  0  0  0  0  0
    8.8530    0.2590  -14.8350 C   0  0  0  0  0  0  0  0  0  0  0  0
    7.6370    1.1480  -15.0680 C   0  0  0  0  0  0  0  0  0  0  0  0
  1  2  1  0
  1  6  1  0
  2  3  1  0
  3  4  1  0
  4  7  1  0
  5  4  1  0
  6  5  1  0
  7 16  1  0
  8  7  2  0
  8  9  1  0
  9 10  1  0
 10 11  1  0
 11 12  2  0
 12 13  1  0
 14 12  1  0
 15 14  2  0
 16 10  2  0
 16 15  1  0
 17  1  1  0
 18 17  1  0
 20 19  1  0
 21 20  1  0
 22 21  2  0
 23 22  1  0
 23 24  1  0
 24 26  1  0
 25 24  2  0
 26 20  2  0
 26 18  1  0
 27 28  1  0
 27 23  1  0
 28 29  1  0
 30 29  1  0
 30 22  1  0
M  END
$$$$
