lig_002
     RDKit          3D

 21 23  0  0  0  0  0  0  0  0999 V2000
   17.3670   -0.0010   57.1200 C   0  0  0  0  0  0  0  0  0  0  0  0
   16.8560   -0.4450   58.3350 C   0  0  0  0  0  0  0  0  0  0  0  0
   17.8750   -1.1040   58.9840 N   0  0  0  0  0  0  0  0  0  0  0  0
   19.0270   -1.0940   58.2390 C   0  0  0  0  0  0  0  0  0  0  0  0
   20.2870   -1.6380   58.5170 C   0  0  0  0  0  0  0  0  0  0  0  0
   21.2920   -1.4650   57.5610 C   0  0  0  0  0  0  0  0  0  0  0  0
   21.0440   -0.7750   56.3780 C   0  0  0  0  0  0  0  0  0  0  0  0
   19.7770   -0.2390   56.1180 C   0  0  0  0  0  0  0  0  0  0  0  0
   18.7450   -0.4030   57.0640 C   0  0  0  0  0  0  0  0  0  0  0  0
   15.5310   -0.3190   58.9360 C   0  0  0  0  0  0  0  0  0  0  0  0
   14.4090   -0.0510   58.1430 C   0  0  0  0  0  0  0  0  0  0  0  0
   13.1420    0.0590   58.7220 C   0  0  0  0  0  0  0  0  0  0  0  0
   12.9870   -0.0970   60.0980 C   0  0  0  0  0  0  0  0  0  0  0  0
   14.0970   -0.3630   60.8970 C   0  0  0  0  0  0  0  0  0  0  0  0
   15.3630   -0.4740   60.3180 C   0  0  0  0  0  0  0  0  0  0  0  0
   16.6420    0.7810   56.0590 C   0  0  0  0  0  0  0  0  0  0  0  0
   16.2680   -0.0930   54.8480 C   0  0  0  0  0  0  0  0  0  0  0  0
   14.8100   -0.1770   54.5890 N   0  0  0  0  0  0  0  0  0  0  0  0
   14.3860    0.8390   53.6200 C   0  0  0  0  0  0  0  0  0  0  0  0
   13.8280   -2.4000   55.2020 C   0  0  0  0  0  0  0  0  0  0  0  0
   14.4740   -1.5360   54.1230 C   0  0  0  0  0  0  0  0  0  0  0  0
  1  2  2  0
  2 10  1  0
  2  3  1  0
  4  5  2  0
  4  3  1  0
  6  5  1  0
  7  6  2  0
  8  7  1  0
  8  9  2  0
  9  1  1  0
  9  4  1  0
 10 15  1  0
 11 12  1  0
 11 10  2  0
 12 13  2  0
 13 14  1  0
 15 14  2  0
 16  1  1  0
 17 16  1  0
 18 17  1  0
 19 18  1  0
 21 18  1  0
 21 20  1  0
M  END
$$$$
