lig_012
     RDKit          3D

 33 39  0  0  1  0  0  0  0  0999 V2000
  189.3810  176.6620  174.8360 C   0  0  2  0  0  0  0  0  0  0  0  0
  187.9330  176.7150  175.3360 C   0  0  0  0  0  0  0  0  0  0  0  0
  187.3060  175.3370  175.6100 C   0  0  0  0  0  0  0  0  0  0  0  0
  187.9590  174.1640  174.8460 C   0  0  1  0  0  0  0  0  0  0  0  0
  186.9410  173.0150  174.4950 C   0  0  1  0  0  0  0  0  0  0  0  0
  185.8400  173.4770  173.4710 C   0  0  0  0  0  0  0  0  0  0  0  0
  186.2800  174.5510  172.5070 C   0  0  0  0  0  0  0  0  0  0  0  0
  185.4340  175.1550  171.5750 C   0  0  0  0  0  0  0  0  0  0  0  0
  185.8810  176.2580  170.8170 C   0  0  0  0  0  0  0  0  0  0  0  0
  187.1620  176.7880  171.0150 C   0  0  0  0  0  0  0  0  0  0  0  0
  187.9860  176.1850  171.9390 C   0  0  0  0  0  0  0  0  0  0  0  0
  187.5640  175.0590  172.6100 C   0  0  0  0  0  0  0  0  0  0  0  0
  188.6250  174.5650  173.5250 C   0  0  2  0  0  0  0  0  0  0  0  0
  189.3570  173.3630  172.8870 C   0  0  0  0  0  0  0  0  0  0  0  0
  188.4830  172.1040  172.8050 C   0  0  0  0  0  0  0  0  0  0  0  0
  187.7690  171.8410  174.0670 N   0  0  0  0  0  0  0  0  0  0  0  0
  189.5270  175.8110  173.5510 C   0  0  1  0  0  0  0  0  0  0  0  0
  189.2180  176.6170  172.3590 O   0  0  0  0  0  0  0  0  0  0  0  0
  192.2070  177.0880  175.1020 O   0  0  0  0  0  0  0  0  0  0  0  0
  191.5900  176.4950  175.9800 C   0  0  0  0  0  0  0  0  0  0  0  0
  190.2530  176.1650  175.8960 N   0  0  0  0  0  0  0  0  0  0  0  0
  192.2570  176.0830  177.2570 C   0  0  0  0  0  0  0  0  0  0  0  0
  193.4240  176.7180  177.6630 C   0  0  0  0  0  0  0  0  0  0  0  0
  194.0130  176.3130  178.8570 C   0  0  0  0  0  0  0  0  0  0  0  0
  193.4170  175.2970  179.6000 C   0  0  0  0  0  0  0  0  0  0  0  0
  192.2510  174.7210  179.1170 C   0  0  0  0  0  0  0  0  0  0  0  0
  191.6540  175.0860  177.9640 N   0  0  0  0  0  0  0  0  0  0  0  0
  188.9680  173.6200  175.7280 O   0  0  0  0  0  0  0  0  0  0  0  0
  187.5870  177.8900  170.3410 O   0  0  0  0  0  0  0  0  0  0  0  0
  187.0320  170.5740  173.9860 C   0  0  0  0  0  0  0  0  0  0  0  0
  187.0910  170.0060  172.5970 C   0  0  0  0  0  0  0  0  0  0  0  0
  186.0360  169.0420  172.1110 C   0  0  0  0  0  0  0  0  0  0  0  0
  187.4310  168.5520  172.3750 C   0  0  0  0  0  0  0  0  0  0  0  0
  1  2  1  0
  1 21  1  1
  2  3  1  0
  4  3  1  0
  4 28  1  1
  5  6  1  6
  5  4  1  0
  7 12  2  0
  7  6  1  0
  8  7  1  0
  9 10  1  0
  9  8  2  0
 10 11  2  0
 11 18  1  0
 11 12  1  0
 12 13  1  0
 13 14  1  6
 13 17  1  0
 13  4  1  0
 15 14  1  0
 15 16  1  0
 16  5  1  0
 17 18  1  6
 17  1  1  0
 19 20  2  0
 20 22  1  0
 21 20  1  0
 22 23  2  0
 22 27  1  0
 23 24  1  0
 24 25  2  0
 26 25  1  0
 27 26  2  0
 29 10  1  0
 30 16  1  0
 31 30  1  0
 32 33  1  0
 32 31  1  0
 33 31  1  0
M  END
$$$$
