lig_012
     RDKit          3D

 23 26  0  0  0  0  0  0  0  0999 V2000
  -12.8240   -6.9360   30.4090 C   0  0  0  0  0  0  0  0  0  0  0  0
   -9.3840   -5.4110   27.3150 O   0  0  0  0  0  0  0  0  0  0  0  0
   -9.9350   -5.9660   28.2380 C   0  0  0  0  0  0  0  0  0  0  0  0
  -11.4360   -5.9040   28.6120 C   0  0  0  0  0  0  0  0  0  0  0  0
  -12.2850   -5.2900   28.0000 O   0  0  0  0  0  0  0  0  0  0  0  0
  -11.5630   -6.6850   29.7500 N   0  0  0  0  0  0  0  0  0  0  0  0
  -10.3240   -7.2370   30.1180 C   0  0  0  0  0  0  0  0  0  0  0  0
  -10.0230   -8.0720   31.1780 C   0  0  0  0  0  0  0  0  0  0  0  0
   -8.6930   -8.4870   31.3310 C   0  0  0  0  0  0  0  0  0  0  0  0
   -7.6910   -8.0670   30.4350 C   0  0  0  0  0  0  0  0  0  0  0  0
   -8.0000   -7.2240   29.3680 C   0  0  0  0  0  0  0  0  0  0  0  0
   -9.3190   -6.8310   29.2410 C   0  0  0  0  0  0  0  0  0  0  0  0
  -13.4800   -8.2200   29.9550 C   0  0  0  0  0  0  0  0  0  0  0  0
  -14.0770   -8.3130   28.6900 C   0  0  0  0  0  0  0  0  0  0  0  0
  -14.6870   -9.5010   28.2690 C   0  0  0  0  0  0  0  0  0  0  0  0
  -14.7010  -10.6200   29.1110 C   0  0  0  0  0  0  0  0  0  0  0  0
  -14.0960  -10.5360   30.3730 C   0  0  0  0  0  0  0  0  0  0  0  0
  -13.4880   -9.3480   30.7880 C   0  0  0  0  0  0  0  0  0  0  0  0
  -15.3150  -11.8400   28.7090 N   0  0  0  0  0  0  0  0  0  0  0  0
  -16.5380  -12.0180   28.0910 C   0  0  0  0  0  0  0  0  0  0  0  0
  -16.7050  -13.3700   27.9000 C   0  0  0  0  0  0  0  0  0  0  0  0
  -15.5420  -13.9440   28.4270 C   0  0  0  0  0  0  0  0  0  0  0  0
  -14.7000  -13.0360   28.9170 N   0  0  0  0  0  0  0  0  0  0  0  0
  2  3  2  0
  3  4  1  0
  3 12  1  0
  4  6  1  0
  5  4  2  0
  6  7  1  0
  6  1  1  0
  7  8  2  0
  8  9  1  0
 10  9  2  0
 11 10  1  0
 12 11  2  0
 12  7  1  0
 13  1  1  0
 13 18  2  0
 14 13  1  0
 15 14  2  0
 15 16  1  0
 16 17  2  0
 17 18  1  0
 19 23  1  0
 19 16  1  0
 20 19  1  0
 21 20  2  0
 21 22  1  0
 22 23  2  0
M  END
$$$$
