lig_001
     RDKit          3D

 31 36  0  0  1  0  0  0  0  0999 V2000
  186.8840  172.4190  174.0320 C   0  0  1  0  0  0  0  0  0  0  0  0
  186.0070  172.7180  172.8030 C   0  0  0  0  0  0  0  0  0  0  0  0
  184.8480  171.7170  172.7390 C   0  0  0  0  0  0  0  0  0  0  0  0
  184.9350  170.7160  173.9220 C   0  0  1  0  0  0  0  0  0  0  0  0
  184.8460  171.5360  175.1180 O   0  0  0  0  0  0  0  0  0  0  0  0
  185.9580  172.4340  175.2700 C   0  0  0  0  0  0  0  0  0  0  0  0
  183.7820  169.6710  173.9320 C   0  0  1  0  0  0  0  0  0  0  0  0
  183.7670  168.9210  172.5830 C   0  0  0  0  0  0  0  0  0  0  0  0
  185.1400  168.4540  172.1420 C   0  0  0  0  0  0  0  0  0  0  0  0
  185.2180  167.5420  171.0750 C   0  0  0  0  0  0  0  0  0  0  0  0
  186.4500  167.0600  170.6350 C   0  0  0  0  0  0  0  0  0  0  0  0
  187.6080  167.4880  171.2660 C   0  0  0  0  0  0  0  0  0  0  0  0
  187.5540  168.3990  172.3170 C   0  0  0  0  0  0  0  0  0  0  0  0
  186.3250  168.9210  172.7570 C   0  0  0  0  0  0  0  0  0  0  0  0
  186.2700  169.9230  173.9310 C   0  0  2  0  0  0  0  0  0  0  0  0
  186.3560  169.0910  175.2530 C   0  0  0  0  0  0  0  0  0  0  0  0
  184.9980  168.8350  175.9360 C   0  0  0  0  0  0  0  0  0  0  0  0
  183.9090  168.6370  174.9920 N   0  0  0  0  0  0  0  0  0  0  0  0
  187.4240  170.9700  173.8660 C   0  0  0  0  0  0  0  0  0  0  0  0
  189.1320  173.2890  173.3020 C   0  0  0  0  0  0  0  0  0  0  0  0
  189.2200  172.5110  172.3560 O   0  0  0  0  0  0  0  0  0  0  0  0
  188.0260  173.3350  174.1250 N   0  0  0  0  0  0  0  0  0  0  0  0
  190.3790  174.4160  175.1830 C   0  0  0  0  0  0  0  0  0  0  0  0
  190.2510  174.2890  173.6580 C   0  0  0  0  0  0  0  0  0  0  0  0
  189.9040  175.6720  173.0760 C   0  0  0  0  0  0  0  0  0  0  0  0
  191.5830  173.8220  173.0520 C   0  0  0  0  0  0  0  0  0  0  0  0
  188.8360  167.0320  170.8840 O   0  0  0  0  0  0  0  0  0  0  0  0
  182.6460  168.2300  175.6060 C   0  0  0  0  0  0  0  0  0  0  0  0
  181.5270  169.2230  175.4710 C   0  0  0  0  0  0  0  0  0  0  0  0
  180.2160  169.0330  176.1940 C   0  0  0  0  0  0  0  0  0  0  0  0
  181.1710  170.0990  176.6470 C   0  0  0  0  0  0  0  0  0  0  0  0
  1 22  1  1
  1  6  1  0
  2  1  1  0
  3  2  1  0
  4  3  1  6
  4 15  1  0
  4  7  1  0
  4  5  1  0
  5  6  1  0
  7  8  1  6
  7 18  1  0
  9  8  1  0
  9 14  2  0
 10  9  1  0
 11 10  2  0
 11 12  1  0
 12 13  2  0
 13 14  1  0
 14 15  1  0
 15 19  1  0
 15 16  1  1
 16 17  1  0
 18 28  1  0
 18 17  1  0
 19  1  1  0
 20 24  1  0
 20 22  1  0
 21 20  2  0
 24 23  1  0
 25 24  1  0
 26 24  1  0
 27 12  1  0
 29 28  1  0
 29 30  1  0
 29 31  1  0
 30 31  1  0
M  END
$$$$
