lig_001
     RDKit          3D

 29 32  0  0  0  0  0  0  0  0999 V2000
  125.1500  138.6430  105.4920 C   0  0  0  0  0  0  0  0  0  0  0  0
  125.9920  137.1050  109.1620 N   0  0  0  0  0  0  0  0  0  0  0  0
  126.8130  136.4870  108.1010 C   0  0  0  0  0  0  0  0  0  0  0  0
  126.7090  137.3400  106.8170 C   0  0  0  0  0  0  0  0  0  0  0  0
  125.3480  137.3870  106.2270 N   0  0  0  0  0  0  0  0  0  0  0  0
  124.3190  137.1460  107.2680 C   0  0  0  0  0  0  0  0  0  0  0  0
  124.6770  137.6050  108.7040 C   0  0  0  0  0  0  0  0  0  0  0  0
  125.9290  136.8440  111.6560 C   0  0  0  0  0  0  0  0  0  0  0  0
  125.9070  135.9620  112.7450 C   0  0  0  0  0  0  0  0  0  0  0  0
  125.9130  134.5800  112.5440 C   0  0  0  0  0  0  0  0  0  0  0  0
  125.9420  134.0640  111.2530 C   0  0  0  0  0  0  0  0  0  0  0  0
  125.9680  134.9320  110.1630 C   0  0  0  0  0  0  0  0  0  0  0  0
  125.9730  136.3270  110.3390 C   0  0  0  0  0  0  0  0  0  0  0  0
  124.7440  138.8080  112.3310 C   0  0  0  0  0  0  0  0  0  0  0  0
  125.9100  138.2120  111.7800 O   0  0  0  0  0  0  0  0  0  0  0  0
  126.1350  139.7320  105.9400 C   0  0  0  0  0  0  0  0  0  0  0  0
  125.4410  141.0060  106.4340 C   0  0  0  0  0  0  0  0  0  0  0  0
  123.9180  140.8760  106.5200 C   0  0  0  0  0  0  0  0  0  0  0  0
  123.4290  141.0400  107.9400 C   0  0  0  0  0  0  0  0  0  0  0  0
  124.1770  141.8110  108.8640 C   0  0  0  0  0  0  0  0  0  0  0  0
  123.7560  141.9660  110.1890 C   0  0  0  0  0  0  0  0  0  0  0  0
  122.5880  141.3340  110.5520 C   0  0  0  0  0  0  0  0  0  0  0  0
  121.8520  140.5760  109.6650 C   0  0  0  0  0  0  0  0  0  0  0  0
  122.2460  140.4070  108.3550 C   0  0  0  0  0  0  0  0  0  0  0  0
  120.7180  140.0280  110.2420 O   0  0  0  0  0  0  0  0  0  0  0  0
  120.7900  140.4980  111.5620 C   0  0  0  0  0  0  0  0  0  0  0  0
  119.9490  140.2270  112.4090 O   0  0  0  0  0  0  0  0  0  0  0  0
  121.9110  141.2800  111.7460 N   0  0  0  0  0  0  0  0  0  0  0  0
  122.3100  141.9260  112.9620 C   0  0  0  0  0  0  0  0  0  0  0  0
  1 16  1  0
  1  5  1  0
  2 13  1  0
  3  2  1  0
  4  3  1  0
  5  4  1  0
  5  6  1  0
  6  7  1  0
  7  2  1  0
  8 15  1  0
  8  9  2  0
 10  9  1  0
 11 10  2  0
 12 13  2  0
 12 11  1  0
 13  8  1  0
 15 14  1  0
 16 17  1  0
 17 18  1  0
 18 19  1  0
 19 24  2  0
 19 20  1  0
 20 21  2  0
 21 22  1  0
 22 28  1  0
 23 25  1  0
 23 22  2  0
 24 23  1  0
 25 26  1  0
 26 28  1  0
 26 27  2  0
 28 29  1  0
M  END
$$$$
