lig_208
     RDKit          3D

 31 34  0  0  1  0  0  0  0  0999 V2000
   -1.8310   11.3600   15.5480 C   0  0  0  0  0  0  0  0  0  0  0  0
   -0.7340   10.8120   16.2120 C   0  0  0  0  0  0  0  0  0  0  0  0
   -0.7650    9.4790   16.6430 C   0  0  0  0  0  0  0  0  0  0  0  0
   -1.8890    8.6730   16.4190 C   0  0  0  0  0  0  0  0  0  0  0  0
   -2.9880    9.2340   15.7590 C   0  0  0  0  0  0  0  0  0  0  0  0
   -2.9570   10.5640   15.3290 C   0  0  0  0  0  0  0  0  0  0  0  0
   -1.9250    7.2790   16.8650 C   0  0  0  0  0  0  0  0  0  0  0  0
   -2.8970    6.2990   16.6900 C   0  0  0  0  0  0  0  0  0  0  0  0
   -2.4350    5.1170   17.3110 C   0  0  0  0  0  0  0  0  0  0  0  0
   -1.2080    5.3820   17.8390 C   0  0  0  0  0  0  0  0  0  0  0  0
   -0.8950    6.6850   17.5690 N   0  0  0  0  0  0  0  0  0  0  0  0
   -0.4180    4.4280   18.5440 C   0  0  0  0  0  0  0  0  0  0  0  0
    0.6850    4.7050   19.0050 O   0  0  0  0  0  0  0  0  0  0  0  0
   -1.0350    3.1810   18.6430 N   0  0  0  0  0  0  0  0  0  0  0  0
   -0.3290    2.1240   19.3400 C   0  0  0  0  0  0  0  0  0  0  0  0
   -2.2980    2.8500   18.1200 C   0  0  0  0  0  0  0  0  0  0  0  0
   -2.7660    1.7150   18.2580 O   0  0  0  0  0  0  0  0  0  0  0  0
   -2.9980    3.8580   17.4410 N   0  0  0  0  0  0  0  0  0  0  0  0
   -4.3090    3.5660   16.8830 C   0  0  0  0  0  0  0  0  0  0  0  0
   -1.9450   12.6420   15.0890 O   0  0  0  0  0  0  0  0  0  0  0  0
   -2.6970   14.0390   16.8520 C   0  0  0  0  0  0  0  0  0  0  0  0
   -3.0710   13.4140   15.5110 C   0  0  1  0  0  0  0  0  0  0  0  0
   -3.4260   14.5480   14.5300 C   0  0  0  0  0  0  0  0  0  0  0  0
   -2.7780   15.5910   14.5210 O   0  0  0  0  0  0  0  0  0  0  0  0
   -4.4800   14.2200   13.6970 N   0  0  0  0  0  0  0  0  0  0  0  0
   -5.0410   14.9900   12.6610 C   0  0  0  0  0  0  0  0  0  0  0  0
   -5.8530   16.1050   12.8710 C   0  0  0  0  0  0  0  0  0  0  0  0
   -6.3680   16.8200   11.7850 C   0  0  0  0  0  0  0  0  0  0  0  0
   -6.0730   16.4260   10.4810 C   0  0  0  0  0  0  0  0  0  0  0  0
   -5.2620   15.3170   10.2620 C   0  0  0  0  0  0  0  0  0  0  0  0
   -4.7470   14.6030   11.3470 C   0  0  0  0  0  0  0  0  0  0  0  0
  1  2  1  0
  2  3  2  0
  4  3  1  0
  4  7  1  0
  5  4  2  0
  6  1  2  0
  6  5  1  0
  7 11  1  0
  8  7  2  0
  8  9  1  0
  9 18  1  0
  9 10  2  0
 10 12  1  0
 11 10  1  0
 12 14  1  0
 12 13  2  0
 14 15  1  0
 16 17  2  0
 16 14  1  0
 18 16  1  0
 19 18  1  0
 20 22  1  0
 20  1  1  0
 22 21  1  1
 23 22  1  0
 24 23  2  0
 25 23  1  0
 26 27  2  0
 26 25  1  0
 28 27  1  0
 29 28  2  0
 30 29  1  0
 30 31  2  0
 31 26  1  0
M  END
$$$$
