lig_007
     RDKit          3D

 24 26  0  0  1  0  0  0  0  0999 V2000
  177.2850  172.4060  137.8870 C   0  0  0  0  0  0  0  0  0  0  0  0
  177.8260  171.1240  137.7860 C   0  0  0  0  0  0  0  0  0  0  0  0
  178.3820  170.7760  136.2120 S   0  0  0  0  0  0  0  0  0  0  0  0
  177.8380  172.2720  135.5870 C   0  0  0  0  0  0  0  0  0  0  0  0
  177.9440  172.7020  134.2480 C   0  0  0  0  0  0  0  0  0  0  0  0
  177.4220  173.9430  133.8860 C   0  0  0  0  0  0  0  0  0  0  0  0
  176.8030  174.7380  134.8330 C   0  0  0  0  0  0  0  0  0  0  0  0
  176.7060  174.3070  136.1610 C   0  0  0  0  0  0  0  0  0  0  0  0
  177.2390  173.0560  136.5760 C   0  0  0  0  0  0  0  0  0  0  0  0
  176.7550  172.9780  139.2030 C   0  0  2  0  0  0  0  0  0  0  0  0
  175.2430  173.2190  139.1050 C   0  0  0  0  0  0  0  0  0  0  0  0
  178.9150  174.0150  140.0940 C   0  0  0  0  0  0  0  0  0  0  0  0
  179.7110  175.0340  140.5010 N   0  0  0  0  0  0  0  0  0  0  0  0
  179.2040  176.2780  140.4240 C   0  0  0  0  0  0  0  0  0  0  0  0
  177.9280  176.5540  139.9770 C   0  0  0  0  0  0  0  0  0  0  0  0
  177.1240  175.4890  139.5750 C   0  0  0  0  0  0  0  0  0  0  0  0
  177.6100  174.1710  139.6110 C   0  0  0  0  0  0  0  0  0  0  0  0
  180.3400  172.3940  139.2300 C   0  0  0  0  0  0  0  0  0  0  0  0
  179.4000  172.7340  140.2440 O   0  0  0  0  0  0  0  0  0  0  0  0
  177.9290  170.0430  138.8370 C   0  0  0  0  0  0  0  0  0  0  0  0
  178.3800  168.6670  138.3090 C   0  0  0  0  0  0  0  0  0  0  0  0
  179.7270  168.2180  138.7130 N   0  0  0  0  0  0  0  0  0  0  0  0
  179.8430  168.2350  140.1740 C   0  0  0  0  0  0  0  0  0  0  0  0
  180.0430  166.8810  138.2090 C   0  0  0  0  0  0  0  0  0  0  0  0
  1 10  1  0
  2  1  2  0
  2 20  1  0
  3  2  1  0
  4  3  1  0
  4  9  1  0
  5  4  2  0
  6  5  1  0
  6  7  2  0
  7  8  1  0
  8  9  2  0
  9  1  1  0
 10 11  1  6
 10 17  1  0
 12 19  1  0
 12 13  2  0
 14 13  1  0
 15 14  2  0
 16 17  2  0
 16 15  1  0
 17 12  1  0
 18 19  1  0
 21 22  1  0
 21 20  1  0
 22 23  1  0
 24 22  1  0
M  END
$$$$
