lig_214
     RDKit          3D

 33 37  0  0  0  0  0  0  0  0999 V2000
    0.9270   15.8100   15.7010 N   0  0  0  0  0  0  0  0  0  0  0  0
   -0.0970   16.4770   15.0690 C   0  0  0  0  0  0  0  0  0  0  0  0
   -1.0640   15.5290   14.9100 C   0  0  0  0  0  0  0  0  0  0  0  0
   -0.5600   14.3420   15.4620 C   0  0  0  0  0  0  0  0  0  0  0  0
   -1.2600   13.1170   15.4960 N   0  0  0  0  0  0  0  0  0  0  0  0
   -2.4530   13.1390   14.9700 C   0  0  0  0  0  0  0  0  0  0  0  0
   -3.3330   12.0740   14.8750 N   0  0  0  0  0  0  0  0  0  0  0  0
   -3.1780   10.8030   15.4090 C   0  0  0  0  0  0  0  0  0  0  0  0
   -2.2840   10.4950   16.1840 O   0  0  0  0  0  0  0  0  0  0  0  0
   -4.1870    9.9610   14.9620 N   0  0  0  0  0  0  0  0  0  0  0  0
   -3.0520   14.2730   14.3860 N   0  0  0  0  0  0  0  0  0  0  0  0
   -4.2820   14.3070   13.8250 N   0  0  0  0  0  0  0  0  0  0  0  0
   -4.3420   15.5980   13.4380 C   0  0  0  0  0  0  0  0  0  0  0  0
   -3.2200   16.3580   13.7240 N   0  0  0  0  0  0  0  0  0  0  0  0
   -2.4460   15.4860   14.3130 C   0  0  0  0  0  0  0  0  0  0  0  0
    0.6630   14.5020   15.9500 N   0  0  0  0  0  0  0  0  0  0  0  0
   -4.4180    8.6220   15.3430 C   0  0  0  0  0  0  0  0  0  0  0  0
   -3.8240    8.0080   16.4470 C   0  0  0  0  0  0  0  0  0  0  0  0
   -4.1110    6.6740   16.7610 C   0  0  0  0  0  0  0  0  0  0  0  0
   -4.9970    5.9260   15.9730 C   0  0  0  0  0  0  0  0  0  0  0  0
   -5.6040    6.5490   14.8740 C   0  0  0  0  0  0  0  0  0  0  0  0
   -5.3150    7.8810   14.5630 C   0  0  0  0  0  0  0  0  0  0  0  0
   -5.3250    4.4960   16.3250 C   0  0  0  0  0  0  0  0  0  0  0  0
   -5.1750    3.6550   15.2640 F   0  0  0  0  0  0  0  0  0  0  0  0
   -4.5290    3.9970   17.3110 F   0  0  0  0  0  0  0  0  0  0  0  0
   -6.6050    4.3260   16.7600 F   0  0  0  0  0  0  0  0  0  0  0  0
   -5.5910   16.1960   12.7140 C   0  0  0  0  0  0  0  0  0  0  0  0
   -6.6370   16.8550   13.3320 C   0  0  0  0  0  0  0  0  0  0  0  0
   -7.5440   17.2270   12.3120 C   0  0  0  0  0  0  0  0  0  0  0  0
   -6.9980   16.7740   11.1340 C   0  0  0  0  0  0  0  0  0  0  0  0
   -5.8150   16.1490   11.3660 O   0  0  0  0  0  0  0  0  0  0  0  0
    2.8260   17.2200   15.0140 C   0  0  0  0  0  0  0  0  0  0  0  0
    2.2010   16.3720   16.1070 C   0  0  0  0  0  0  0  0  0  0  0  0
  1 16  1  0
  1 33  1  0
  2  1  1  0
  3  2  2  0
  3  4  1  0
  4  5  1  0
  4 16  2  0
  6  5  2  0
  7  6  1  0
  7  8  1  0
  8  9  2  0
 10 17  1  0
 10  8  1  0
 11  6  1  0
 12 11  1  0
 13 14  1  0
 13 12  2  0
 14 15  2  0
 15 11  1  0
 15  3  1  0
 17 18  1  0
 18 19  2  0
 20 23  1  0
 20 19  1  0
 21 20  2  0
 22 21  1  0
 22 17  2  0
 23 26  1  0
 23 25  1  0
 24 23  1  0
 27 28  2  0
 27 13  1  0
 29 28  1  0
 30 31  1  0
 30 29  2  0
 31 27  1  0
 32 33  1  0
M  END
$$$$
