lig_015
     RDKit          3D

 33 36  0  0  1  0  0  0  0  0999 V2000
   14.1780    0.3340   55.9380 C   0  0  0  0  0  0  0  0  0  0  0  0
   12.8050    0.5040   56.1380 C   0  0  0  0  0  0  0  0  0  0  0  0
   12.3110    0.9200   57.3790 C   0  0  0  0  0  0  0  0  0  0  0  0
   13.1770    1.1780   58.4430 C   0  0  0  0  0  0  0  0  0  0  0  0
   14.5450    0.9790   58.2580 C   0  0  0  0  0  0  0  0  0  0  0  0
   15.0600    0.5720   57.0130 C   0  0  0  0  0  0  0  0  0  0  0  0
   12.6090    1.5970   59.6630 N   0  0  0  0  0  0  0  0  0  0  0  0
   11.9100    0.8040   60.5650 C   0  0  0  0  0  0  0  0  0  0  0  0
   11.8040   -0.4120   60.4890 O   0  0  0  0  0  0  0  0  0  0  0  0
   11.3620    1.5960   61.5650 N   0  0  0  0  0  0  0  0  0  0  0  0
   10.6830    1.1650   62.7230 C   0  0  0  0  0  0  0  0  0  0  0  0
    9.2830    1.2290   62.7050 C   0  0  0  0  0  0  0  0  0  0  0  0
    8.5360    0.8300   63.8200 C   0  0  0  0  0  0  0  0  0  0  0  0
    9.1880    0.3690   64.9590 C   0  0  0  0  0  0  0  0  0  0  0  0
    8.2740   -0.1190   66.3300 Cl  0  0  0  0  0  0  0  0  0  0  0  0
   10.5790    0.3080   64.9930 C   0  0  0  0  0  0  0  0  0  0  0  0
   11.3230    0.7070   63.8780 C   0  0  0  0  0  0  0  0  0  0  0  0
   16.5110    0.3860   56.8770 C   0  0  0  0  0  0  0  0  0  0  0  0
   17.3920    0.9300   55.9600 C   0  0  0  0  0  0  0  0  0  0  0  0
   18.6500    0.4010   56.2880 C   0  0  0  0  0  0  0  0  0  0  0  0
   18.5970   -0.4180   57.3390 N   0  0  0  0  0  0  0  0  0  0  0  0
   17.2940   -0.3970   57.6960 N   0  0  0  0  0  0  0  0  0  0  0  0
   16.8840   -1.1510   58.8590 C   0  0  0  0  0  0  0  0  0  0  0  0
   14.7500   -0.0540   54.7550 O   0  0  0  0  0  0  0  0  0  0  0  0
   14.2800    0.4970   53.5220 C   0  0  0  0  0  0  0  0  0  0  0  0
   15.1870    1.6540   53.0660 C   0  0  0  0  0  0  0  0  0  0  0  0
   16.1100    4.4370   51.7650 C   0  0  0  0  0  0  0  0  0  0  0  0
   15.3290    3.2360   51.2160 C   0  0  2  0  0  0  0  0  0  0  0  0
   14.5430    3.6430   49.9510 C   0  0  0  0  0  0  0  0  0  0  0  0
   13.2080    4.2910   50.2920 C   0  0  0  0  0  0  0  0  0  0  0  0
   12.3790    3.4030   51.2170 C   0  0  0  0  0  0  0  0  0  0  0  0
   13.1750    2.2380   51.8150 C   0  0  0  0  0  0  0  0  0  0  0  0
   14.4770    2.6990   52.3050 N   0  0  0  0  0  0  0  0  0  0  0  0
  1  2  1  0
  1  6  2  0
  2  3  2  0
  3  4  1  0
  4  7  1  0
  5  4  2  0
  6  5  1  0
  7  8  1  0
  8 10  1  0
  9  8  2  0
 10 11  1  0
 11 17  2  0
 12 11  1  0
 12 13  2  0
 13 14  1  0
 14 16  2  0
 14 15  1  0
 17 16  1  0
 18  6  1  0
 18 22  1  0
 19 20  1  0
 19 18  2  0
 20 21  2  0
 21 22  1  0
 22 23  1  0
 24  1  1  0
 25 24  1  0
 26 25  1  0
 28 27  1  1
 28 33  1  0
 29 30  1  0
 29 28  1  0
 30 31  1  0
 31 32  1  0
 32 33  1  0
 33 26  1  0
M  END
$$$$
