lig_132
     RDKit          3D

 31 34  0  0  0  0  0  0  0  0999 V2000
   -0.3380  -18.4010   10.6900 C   0  0  0  0  0  0  0  0  0  0  0  0
    0.3830  -19.5550   11.4040 C   0  0  0  0  0  0  0  0  0  0  0  0
    0.0530  -21.7830   14.8870 N   0  0  0  0  0  0  0  0  0  0  0  0
   -0.9550  -20.6970   14.7780 C   0  0  0  0  0  0  0  0  0  0  0  0
   -0.5690  -19.7020   13.6580 C   0  0  0  0  0  0  0  0  0  0  0  0
   -0.5040  -20.3100   12.3040 N   0  0  0  0  0  0  0  0  0  0  0  0
   -0.1000  -21.7360   12.3900 C   0  0  0  0  0  0  0  0  0  0  0  0
    0.7510  -22.0990   13.6260 C   0  0  0  0  0  0  0  0  0  0  0  0
   -0.6210  -22.6490   17.0870 C   0  0  0  0  0  0  0  0  0  0  0  0
   -1.1880  -23.6530   17.8800 C   0  0  0  0  0  0  0  0  0  0  0  0
   -1.5270  -24.8800   17.3210 C   0  0  0  0  0  0  0  0  0  0  0  0
   -1.3140  -25.0980   15.9640 C   0  0  0  0  0  0  0  0  0  0  0  0
   -0.7730  -24.0840   15.1640 C   0  0  0  0  0  0  0  0  0  0  0  0
   -0.4200  -22.8330   15.6980 C   0  0  0  0  0  0  0  0  0  0  0  0
   -0.1600  -21.7030   19.1600 C   0  0  0  0  0  0  0  0  0  0  0  0
   -0.3160  -21.4870   17.7570 O   0  0  0  0  0  0  0  0  0  0  0  0
   -0.7820  -18.7640    9.2690 C   0  0  0  0  0  0  0  0  0  0  0  0
   -0.1030  -17.9240    8.1890 C   0  0  0  0  0  0  0  0  0  0  0  0
   -0.1330  -16.5190    8.5230 N   0  0  0  0  0  0  0  0  0  0  0  0
    0.5950  -15.5700    7.8360 C   0  0  0  0  0  0  0  0  0  0  0  0
    1.2800  -15.8140    6.8490 O   0  0  0  0  0  0  0  0  0  0  0  0
    0.4960  -14.1860    8.4050 C   0  0  0  0  0  0  0  0  0  0  0  0
    1.1150  -13.1310    7.7570 C   0  0  0  0  0  0  0  0  0  0  0  0
    0.9990  -11.8660    8.3210 C   0  0  0  0  0  0  0  0  0  0  0  0
    0.2720  -11.6970    9.5080 C   0  0  0  0  0  0  0  0  0  0  0  0
    0.1300  -10.4350   10.1100 C   0  0  0  0  0  0  0  0  0  0  0  0
   -0.5970  -10.2950   11.2890 C   0  0  0  0  0  0  0  0  0  0  0  0
   -1.1860  -11.4120   11.8700 C   0  0  0  0  0  0  0  0  0  0  0  0
   -1.0440  -12.6660   11.2700 C   0  0  0  0  0  0  0  0  0  0  0  0
   -0.3250  -12.8360   10.0940 C   0  0  0  0  0  0  0  0  0  0  0  0
   -0.2190  -14.0640    9.5590 N   0  0  0  0  0  0  0  0  0  0  0  0
  1  2  1  0
  2  6  1  0
  3 14  1  0
  4  3  1  0
  5  4  1  0
  6  7  1  0
  6  5  1  0
  7  8  1  0
  8  3  1  0
  9 16  1  0
  9 10  2  0
 11 10  1  0
 12 11  2  0
 13 14  2  0
 13 12  1  0
 14  9  1  0
 16 15  1  0
 17  1  1  0
 18 19  1  0
 18 17  1  0
 20 22  1  0
 20 19  1  0
 21 20  2  0
 22 31  2  0
 23 24  2  0
 23 22  1  0
 24 25  1  0
 25 30  1  0
 25 26  2  0
 26 27  1  0
 27 28  2  0
 29 28  1  0
 30 29  2  0
 31 30  1  0
M  END
$$$$
