lig_028
     RDKit          3D

 29 33  0  0  1  0  0  0  0  0999 V2000
    9.1570    1.5640  -15.4680 C   0  0  0  0  0  0  0  0  0  0  0  0
    9.0150    2.4580  -14.3270 N   0  0  0  0  0  0  0  0  0  0  0  0
    7.6270    2.8640  -13.9950 C   0  0  0  0  0  0  0  0  0  0  0  0
    7.5670    3.7860  -12.7550 C   0  0  0  0  0  0  0  0  0  0  0  0
    8.3100    5.0110  -13.0240 N   0  0  0  0  0  0  0  0  0  0  0  0
    9.6080    4.7000  -13.5430 C   0  0  0  0  0  0  0  0  0  0  0  0
   10.5230    5.7390  -13.3160 C   0  0  0  0  0  0  0  0  0  0  0  0
   11.8260    5.6390  -13.7600 C   0  0  0  0  0  0  0  0  0  0  0  0
   12.2030    4.4650  -14.4160 C   0  0  0  0  0  0  0  0  0  0  0  0
   11.2830    3.4150  -14.6260 C   0  0  0  0  0  0  0  0  0  0  0  0
    9.9500    3.5070  -14.2010 C   0  0  0  0  0  0  0  0  0  0  0  0
    9.8060    6.8460  -12.5980 C   0  0  2  0  0  0  0  0  0  0  0  0
   10.5680    7.6650  -11.5540 C   0  0  0  0  0  0  0  0  0  0  0  0
   10.8050    6.9510  -10.2960 N   0  0  0  0  0  0  0  0  0  0  0  0
    9.5510    6.4830   -9.7040 C   0  0  0  0  0  0  0  0  0  0  0  0
    8.8920    5.4640  -10.6260 C   0  0  0  0  0  0  0  0  0  0  0  0
    8.5990    6.0530  -12.0150 C   0  0  2  0  0  0  0  0  0  0  0  0
   11.6410    7.6930   -9.3430 C   0  0  0  0  0  0  0  0  0  0  0  0
   10.9900    8.9030   -8.6540 C   0  0  0  0  0  0  0  0  0  0  0  0
   11.5110    9.0950   -7.2260 C   0  0  0  0  0  0  0  0  0  0  0  0
   10.8090    8.2060   -6.2110 C   0  0  0  0  0  0  0  0  0  0  0  0
    9.7820    7.5880   -6.4800 O   0  0  0  0  0  0  0  0  0  0  0  0
   11.3830    8.0970   -4.8340 C   0  0  0  0  0  0  0  0  0  0  0  0
   11.5230    6.8680   -4.1750 C   0  0  0  0  0  0  0  0  0  0  0  0
   12.0670    6.8230   -2.8880 C   0  0  0  0  0  0  0  0  0  0  0  0
   12.4690    7.9990   -2.2650 C   0  0  0  0  0  0  0  0  0  0  0  0
   12.9890    7.9490   -1.0330 F   0  0  0  0  0  0  0  0  0  0  0  0
   12.3410    9.2250   -2.9060 C   0  0  0  0  0  0  0  0  0  0  0  0
   11.7990    9.2750   -4.1920 C   0  0  0  0  0  0  0  0  0  0  0  0
  1  2  1  0
  2 11  1  0
  2  3  1  0
  3  4  1  0
  5  4  1  0
  5 17  1  0
  6  7  2  0
  6  5  1  0
  7 12  1  0
  8  7  1  0
  9  8  2  0
 10  9  1  0
 10 11  2  0
 11  6  1  0
 12 17  1  0
 12 13  1  1
 13 14  1  0
 14 15  1  0
 14 18  1  0
 16 15  1  0
 17 16  1  1
 18 19  1  0
 19 20  1  0
 20 21  1  0
 21 23  1  0
 22 21  2  0
 23 29  2  0
 23 24  1  0
 24 25  2  0
 25 26  1  0
 26 27  1  0
 28 26  2  0
 29 28  1  0
M  END
$$$$
