lig_001
     RDKit          3D

 28 30  0  0  1  0  0  0  0  0999 V2000
    7.4000  -25.8720   60.0220 C   0  0  0  0  0  0  0  0  0  0  0  0
    8.1450  -25.2060   60.7320 O   0  0  0  0  0  0  0  0  0  0  0  0
    6.0240  -25.8450   60.1290 N   0  0  0  0  0  0  0  0  0  0  0  0
    5.4300  -25.0370   61.1900 C   0  0  0  0  0  0  0  0  0  0  0  0
    3.9250  -25.2770   61.3410 C   0  0  0  0  0  0  0  0  0  0  0  0
    3.2500  -25.1330   60.0490 N   0  0  0  0  0  0  0  0  0  0  0  0
    2.3310  -24.1430   59.7280 C   0  0  0  0  0  0  0  0  0  0  0  0
    1.9160  -23.9960   58.5740 O   0  0  0  0  0  0  0  0  0  0  0  0
    3.8070  -25.9550   58.9370 C   0  0  1  0  0  0  0  0  0  0  0  0
    5.1230  -26.6830   59.3260 C   0  0  0  0  0  0  0  0  0  0  0  0
    7.8940  -28.0890   59.4550 C   0  0  0  0  0  0  0  0  0  0  0  0
    7.8350  -26.7210   59.0530 O   0  0  0  0  0  0  0  0  0  0  0  0
    1.8290  -23.2140   60.8250 C   0  0  0  0  0  0  0  0  0  0  0  0
    1.8090  -21.7530   60.4330 C   0  0  0  0  0  0  0  0  0  0  0  0
    2.8050  -20.8850   60.8980 C   0  0  0  0  0  0  0  0  0  0  0  0
    2.7840  -19.5300   60.5570 C   0  0  0  0  0  0  0  0  0  0  0  0
    1.7590  -19.0200   59.7570 C   0  0  0  0  0  0  0  0  0  0  0  0
    1.7990  -17.3350   59.3760 Cl  0  0  0  0  0  0  0  0  0  0  0  0
    0.7470  -19.8700   59.3020 C   0  0  0  0  0  0  0  0  0  0  0  0
   -0.5610  -19.3120   58.3210 Cl  0  0  0  0  0  0  0  0  0  0  0  0
    0.7700  -21.2270   59.6460 C   0  0  0  0  0  0  0  0  0  0  0  0
    2.7540  -26.9820   58.4270 C   0  0  0  0  0  0  0  0  0  0  0  0
    2.5590  -27.0030   56.9640 N   0  0  0  0  0  0  0  0  0  0  0  0
    1.1190  -26.9540   56.6470 C   0  0  0  0  0  0  0  0  0  0  0  0
    0.8340  -26.7670   55.1830 C   0  0  0  0  0  0  0  0  0  0  0  0
    1.7570  -26.3400   54.3090 C   0  0  0  0  0  0  0  0  0  0  0  0
    3.1430  -25.9900   54.7660 C   0  0  0  0  0  0  0  0  0  0  0  0
    3.2560  -25.8850   56.2990 C   0  0  0  0  0  0  0  0  0  0  0  0
  1  3  1  0
  1  2  2  0
  3  4  1  0
  4  5  1  0
  6  5  1  0
  7  6  1  0
  7 13  1  0
  8  7  2  0
  9 22  1  1
  9 10  1  0
  9  6  1  0
 10  3  1  0
 12 11  1  0
 12  1  1  0
 14 13  1  0
 14 15  1  0
 16 15  2  0
 17 16  1  0
 18 17  1  0
 19 21  1  0
 19 17  2  0
 20 19  1  0
 21 14  2  0
 23 22  1  0
 24 23  1  0
 25 24  1  0
 26 27  1  0
 26 25  2  0
 27 28  1  0
 28 23  1  0
M  END
$$$$
