lig_029
     RDKit          3D

 28 32  0  0  1  0  0  0  0  0999 V2000
  186.8490  174.5550  174.5900 C   0  0  2  0  0  0  0  0  0  0  0  0
  186.3770  175.9380  175.1310 C   0  0  0  0  0  0  0  0  0  0  0  0
  187.4990  176.9680  175.3810 C   0  0  0  0  0  0  0  0  0  0  0  0
  188.9000  176.3500  175.4630 C   0  0  1  0  0  0  0  0  0  0  0  0
  189.2650  175.5430  174.1790 C   0  0  2  0  0  0  0  0  0  0  0  0
  189.7150  176.3940  173.0660 O   0  0  0  0  0  0  0  0  0  0  0  0
  188.6770  176.4120  172.1770 C   0  0  0  0  0  0  0  0  0  0  0  0
  188.5340  177.2600  171.1040 C   0  0  0  0  0  0  0  0  0  0  0  0
  187.3440  177.2290  170.3760 C   0  0  0  0  0  0  0  0  0  0  0  0
  186.2960  176.3690  170.7610 C   0  0  0  0  0  0  0  0  0  0  0  0
  186.4560  175.5090  171.8530 C   0  0  0  0  0  0  0  0  0  0  0  0
  187.6840  175.5200  172.4910 C   0  0  0  0  0  0  0  0  0  0  0  0
  188.0770  174.6910  173.6630 C   0  0  2  0  0  0  0  0  0  0  0  0
  188.5670  173.3010  173.1900 C   0  0  0  0  0  0  0  0  0  0  0  0
  187.4570  172.4520  172.5600 C   0  0  0  0  0  0  0  0  0  0  0  0
  186.2300  172.4550  173.3620 N   0  0  0  0  0  0  0  0  0  0  0  0
  185.2060  171.5960  172.7790 C   0  0  0  0  0  0  0  0  0  0  0  0
  185.7500  173.8250  173.6980 C   0  0  2  0  0  0  0  0  0  0  0  0
  185.3410  174.6800  172.4390 C   0  0  0  0  0  0  0  0  0  0  0  0
  186.4270  173.7210  176.8520 C   0  0  0  0  0  0  0  0  0  0  0  0
  187.2950  173.7760  175.7290 O   0  0  0  0  0  0  0  0  0  0  0  0
  189.8900  177.2770  176.0430 N   0  0  0  0  0  0  0  0  0  0  0  0
  191.1520  176.7560  176.6070 C   0  0  1  0  0  0  0  0  0  0  0  0
  191.1480  175.2450  176.8100 C   0  0  0  0  0  0  0  0  0  0  0  0
  192.3000  177.1310  175.6450 C   0  0  0  0  0  0  0  0  0  0  0  0
  192.6830  176.5170  174.6620 O   0  0  0  0  0  0  0  0  0  0  0  0
  192.9630  178.2500  176.0350 O   0  0  0  0  0  0  0  0  0  0  0  0
  189.5110  178.1430  170.7630 O   0  0  0  0  0  0  0  0  0  0  0  0
  1  2  1  0
  1 21  1  1
  2  3  1  0
  3  4  1  0
  4 22  1  6
  5  6  1  6
  5  4  1  0
  7 12  1  0
  7  6  1  0
  8  7  2  0
  9 10  2  0
  9  8  1  0
 10 11  1  0
 11 19  1  0
 11 12  2  0
 12 13  1  0
 13 14  1  6
 13  5  1  0
 13  1  1  0
 15 14  1  0
 15 16  1  0
 16 18  1  0
 17 16  1  0
 18 19  1  6
 18  1  1  0
 21 20  1  0
 22 23  1  0
 23 24  1  6
 25 27  1  0
 25 23  1  0
 26 25  2  0
 28  8  1  0
M  END
$$$$
