lig_355
     RDKit          3D

 24 27  0  0  0  0  0  0  0  0999 V2000
   -0.1200  -15.7990   13.8330 C   0  0  0  0  0  0  0  0  0  0  0  0
    0.4490  -16.1420   12.4310 C   0  0  0  0  0  0  0  0  0  0  0  0
   -0.2840  -17.3890   11.8440 C   0  0  0  0  0  0  0  0  0  0  0  0
    0.4860  -18.7100   11.9890 C   0  0  0  0  0  0  0  0  0  0  0  0
    1.1370  -18.7770   13.2900 N   0  0  0  0  0  0  0  0  0  0  0  0
    2.2010  -17.7710   13.4110 C   0  0  0  0  0  0  0  0  0  0  0  0
    1.9510  -16.5010   12.5810 C   0  0  0  0  0  0  0  0  0  0  0  0
    0.1930  -14.9160   11.5250 C   0  0  0  0  0  0  0  0  0  0  0  0
   -0.6850  -13.8990   11.9550 C   0  0  0  0  0  0  0  0  0  0  0  0
   -0.9380  -12.7710   11.1680 C   0  0  0  0  0  0  0  0  0  0  0  0
   -0.3120  -12.6370    9.9340 C   0  0  0  0  0  0  0  0  0  0  0  0
   -0.6190  -11.2520    8.9620 Cl  0  0  0  0  0  0  0  0  0  0  0  0
    0.5640  -13.6200    9.4860 C   0  0  0  0  0  0  0  0  0  0  0  0
    0.8160  -14.7480   10.2760 C   0  0  0  0  0  0  0  0  0  0  0  0
    1.6120  -20.1350   13.5890 C   0  0  0  0  0  0  0  0  0  0  0  0
    0.8020  -20.7550   14.6870 C   0  0  0  0  0  0  0  0  0  0  0  0
    0.2890  -20.1080   15.7970 C   0  0  0  0  0  0  0  0  0  0  0  0
   -0.3740  -21.0270   16.5660 N   0  0  0  0  0  0  0  0  0  0  0  0
   -0.3040  -22.2720   15.9890 C   0  0  0  0  0  0  0  0  0  0  0  0
   -0.8270  -23.4970   16.4180 C   0  0  0  0  0  0  0  0  0  0  0  0
   -0.6010  -24.6170   15.6130 C   0  0  0  0  0  0  0  0  0  0  0  0
    0.1190  -24.5130   14.4240 C   0  0  0  0  0  0  0  0  0  0  0  0
    0.6360  -23.2790   14.0110 C   0  0  0  0  0  0  0  0  0  0  0  0
    0.4250  -22.1350   14.8070 C   0  0  0  0  0  0  0  0  0  0  0  0
  2  7  1  0
  2  1  1  0
  3  4  1  0
  3  2  1  0
  4  5  1  0
  5  6  1  0
  5 15  1  0
  7  6  1  0
  8  9  1  0
  8  2  1  0
 10  9  2  0
 11 10  1  0
 12 11  1  0
 13 11  2  0
 13 14  1  0
 14  8  2  0
 15 16  1  0
 16 24  1  0
 16 17  2  0
 17 18  1  0
 19 20  2  0
 19 18  1  0
 21 20  1  0
 22 21  2  0
 23 22  1  0
 23 24  2  0
 24 19  1  0
M  END
$$$$
