lig_019
     RDKit          3D

 35 42  0  0  1  0  0  0  0  0999 V2000
    4.6640  -28.3960   65.4320 C   0  0  2  0  0  0  0  0  0  0  0  0
    3.1900  -28.7930   65.2940 C   0  0  0  0  0  0  0  0  0  0  0  0
    2.5200  -28.9530   66.6620 C   0  0  0  0  0  0  0  0  0  0  0  0
    2.5450  -27.6260   67.4280 C   0  0  1  0  0  0  0  0  0  0  0  0
    1.9750  -27.7100   68.8860 C   0  0  1  0  0  0  0  0  0  0  0  0
    2.8410  -28.6090   69.8350 C   0  0  0  0  0  0  0  0  0  0  0  0
    4.3250  -28.5490   69.5820 C   0  0  0  0  0  0  0  0  0  0  0  0
    5.2880  -29.2140   70.3430 C   0  0  0  0  0  0  0  0  0  0  0  0
    6.6510  -29.1720   69.9680 C   0  0  0  0  0  0  0  0  0  0  0  0
    7.0510  -28.4940   68.8150 C   0  0  0  0  0  0  0  0  0  0  0  0
    6.0940  -27.8520   68.0680 C   0  0  0  0  0  0  0  0  0  0  0  0
    4.7780  -27.8530   68.4770 C   0  0  0  0  0  0  0  0  0  0  0  0
    3.9540  -27.0350   67.5490 C   0  0  2  0  0  0  0  0  0  0  0  0
    3.8720  -25.5970   68.1180 C   0  0  0  0  0  0  0  0  0  0  0  0
    3.0530  -25.5360   69.4210 C   0  0  0  0  0  0  0  0  0  0  0  0
    1.7940  -26.2910   69.3340 N   0  0  0  0  0  0  0  0  0  0  0  0
    4.8870  -27.1410   66.3280 C   0  0  1  0  0  0  0  0  0  0  0  0
    6.2670  -27.2080   66.8630 O   0  0  0  0  0  0  0  0  0  0  0  0
    7.3370  -28.9690   64.6960 O   0  0  0  0  0  0  0  0  0  0  0  0
    6.5710  -28.5300   63.8430 C   0  0  0  0  0  0  0  0  0  0  0  0
    5.2580  -28.1920   64.1050 N   0  0  0  0  0  0  0  0  0  0  0  0
    7.0280  -28.3880   62.4320 C   0  0  0  0  0  0  0  0  0  0  0  0
    7.4380  -29.4730   61.6390 C   0  0  0  0  0  0  0  0  0  0  0  0
    7.8720  -29.2810   60.3250 C   0  0  0  0  0  0  0  0  0  0  0  0
    7.9020  -28.0010   59.7600 C   0  0  0  0  0  0  0  0  0  0  0  0
    7.4710  -26.8990   60.5240 C   0  0  0  0  0  0  0  0  0  0  0  0
    7.3570  -25.5030   60.2700 C   0  0  0  0  0  0  0  0  0  0  0  0
    6.8540  -24.9100   61.4060 C   0  0  0  0  0  0  0  0  0  0  0  0
    6.6590  -25.8910   62.3390 N   0  0  0  0  0  0  0  0  0  0  0  0
    7.0400  -27.1170   61.8310 C   0  0  0  0  0  0  0  0  0  0  0  0
    0.9730  -26.1560   70.5470 C   0  0  0  0  0  0  0  0  0  0  0  0
   -0.4040  -25.5580   70.4250 C   0  0  0  0  0  0  0  0  0  0  0  0
   -0.2470  -27.0210   70.7150 C   0  0  0  0  0  0  0  0  0  0  0  0
    1.7150  -26.7220   66.6630 O   0  0  0  0  0  0  0  0  0  0  0  0
    8.3560  -28.5080   68.4390 O   0  0  0  0  0  0  0  0  0  0  0  0
  1 21  1  6
  1 17  1  0
  2  1  1  0
  2  3  1  0
  3  4  1  0
  4 34  1  6
  4 13  1  0
  4  5  1  0
  5 16  1  0
  5  6  1  1
  7  6  1  0
  7  8  1  0
  9  8  2  0
 10  9  1  0
 11 12  1  0
 11 10  2  0
 12  7  2  0
 13 14  1  1
 13 12  1  0
 14 15  1  0
 16 15  1  0
 16 31  1  0
 17 18  1  1
 17 13  1  0
 18 11  1  0
 20 21  1  0
 20 19  2  0
 22 20  1  0
 23 22  1  0
 24 23  2  0
 25 24  1  0
 25 26  2  0
 26 30  1  0
 27 26  1  0
 27 28  2  0
 28 29  1  0
 30 29  1  0
 30 22  2  0
 31 33  1  0
 32 31  1  0
 32 33  1  0
 35 10  1  0
M  END
$$$$
