lig_002
     RDKit          3D

 23 26  0  0  0  0  0  0  0  0999 V2000
   20.5760   19.6320   10.2570 C   0  0  0  0  0  0  0  0  0  0  0  0
   19.4150   20.2670    9.9880 N   0  0  0  0  0  0  0  0  0  0  0  0
   18.7990   20.8740   11.0070 C   0  0  0  0  0  0  0  0  0  0  0  0
   19.2580   20.8700   12.2690 N   0  0  0  0  0  0  0  0  0  0  0  0
   20.4250   20.2340   12.5270 C   0  0  0  0  0  0  0  0  0  0  0  0
   21.1650   19.6100   11.5260 C   0  0  0  0  0  0  0  0  0  0  0  0
   22.4860   18.9120   11.7480 C   0  0  0  0  0  0  0  0  0  0  0  0
   23.3410   19.4090   12.9200 C   0  0  0  0  0  0  0  0  0  0  0  0
   22.9340   18.9280   14.2380 N   0  0  0  0  0  0  0  0  0  0  0  0
   21.4970   19.0210   14.5020 C   0  0  0  0  0  0  0  0  0  0  0  0
   20.8320   20.2940   13.9770 C   0  0  0  0  0  0  0  0  0  0  0  0
   22.8870   17.0480    5.6060 C   0  0  0  0  0  0  0  0  0  0  0  0
   22.2640   17.7100    6.7990 C   0  0  0  0  0  0  0  0  0  0  0  0
   21.9150   16.9580    7.9260 C   0  0  0  0  0  0  0  0  0  0  0  0
   21.3580   17.5790    9.0480 C   0  0  0  0  0  0  0  0  0  0  0  0
   21.1550   18.9670    9.0770 C   0  0  0  0  0  0  0  0  0  0  0  0
   21.5060   19.7130    7.9410 C   0  0  0  0  0  0  0  0  0  0  0  0
   22.0630   19.0940    6.8180 C   0  0  0  0  0  0  0  0  0  0  0  0
   17.4940   21.5730   10.7170 C   0  0  0  0  0  0  0  0  0  0  0  0
   17.1260   22.5770   11.8250 C   0  0  0  0  0  0  0  0  0  0  0  0
   16.7300   23.8580   11.0990 C   0  0  0  0  0  0  0  0  0  0  0  0
   17.5850   23.8390    9.8440 C   0  0  0  0  0  0  0  0  0  0  0  0
   17.5220   22.3810    9.4090 C   0  0  0  0  0  0  0  0  0  0  0  0
  1  6  1  0
  2  1  2  0
  2  3  1  0
  3  4  2  0
  4  5  1  0
  5 11  1  0
  6  7  1  0
  6  5  2  0
  7  8  1  0
  8  9  1  0
  9 10  1  0
 11 10  1  0
 12 13  1  0
 13 18  2  0
 13 14  1  0
 14 15  2  0
 15 16  1  0
 16  1  1  0
 17 16  2  0
 18 17  1  0
 19  3  1  0
 19 20  1  0
 21 20  1  0
 22 21  1  0
 23 22  1  0
 23 19  1  0
M  END
$$$$
