lig_013
     RDKit          3D

 30 33  0  0  1  0  0  0  0  0999 V2000
  -10.1200   -8.9980   30.2470 N   0  0  0  0  0  0  0  0  0  0  0  0
  -11.4330   -9.3800   30.8050 C   0  0  0  0  0  0  0  0  0  0  0  0
  -11.5330  -10.8970   31.0240 C   0  0  0  0  0  0  0  0  0  0  0  0
  -11.3220  -11.6730   29.7960 N   0  0  0  0  0  0  0  0  0  0  0  0
  -11.7310  -12.9900   29.6210 C   0  0  0  0  0  0  0  0  0  0  0  0
  -11.4960  -13.6150   28.5870 O   0  0  0  0  0  0  0  0  0  0  0  0
  -10.5030  -11.0350   28.7430 C   0  0  1  0  0  0  0  0  0  0  0  0
  -11.3870  -10.4840   27.6200 C   0  0  0  0  0  0  0  0  0  0  0  0
   -9.5200   -9.9820   29.3130 C   0  0  0  0  0  0  0  0  0  0  0  0
   -7.6760   -7.4170   30.1430 C   0  0  0  0  0  0  0  0  0  0  0  0
   -9.0100   -6.9030   29.6840 C   0  0  0  0  0  0  0  0  0  0  0  0
   -9.1070   -5.5850   29.2140 C   0  0  0  0  0  0  0  0  0  0  0  0
  -10.3290   -5.1080   28.7770 C   0  0  0  0  0  0  0  0  0  0  0  0
  -10.4440   -3.8570   28.3160 F   0  0  0  0  0  0  0  0  0  0  0  0
  -11.4200   -5.9480   28.8240 C   0  0  0  0  0  0  0  0  0  0  0  0
  -11.3670   -7.2190   29.2870 N   0  0  0  0  0  0  0  0  0  0  0  0
  -10.1760   -7.6930   29.7240 C   0  0  0  0  0  0  0  0  0  0  0  0
  -12.5000  -13.6230   30.7730 C   0  0  0  0  0  0  0  0  0  0  0  0
  -13.8440  -14.2310   30.3570 C   0  0  0  0  0  0  0  0  0  0  0  0
  -15.0230  -13.2790   30.6150 C   0  0  0  0  0  0  0  0  0  0  0  0
  -15.8580  -12.8590   29.4130 C   0  0  0  0  0  0  0  0  0  0  0  0
  -16.8530  -13.6970   28.8870 C   0  0  0  0  0  0  0  0  0  0  0  0
  -17.6040  -13.3030   27.7850 C   0  0  0  0  0  0  0  0  0  0  0  0
  -17.3740  -12.0630   27.1950 C   0  0  0  0  0  0  0  0  0  0  0  0
  -16.4130  -11.1930   27.6810 C   0  0  0  0  0  0  0  0  0  0  0  0
  -16.2620  -10.0110   27.0540 N   0  0  0  0  0  0  0  0  0  0  0  0
  -15.3380   -9.1520   27.5280 C   0  0  0  0  0  0  0  0  0  0  0  0
  -14.5360   -9.4170   28.6170 C   0  0  0  0  0  0  0  0  0  0  0  0
  -14.6940  -10.6410   29.2580 C   0  0  0  0  0  0  0  0  0  0  0  0
  -15.6450  -11.5800   28.8050 C   0  0  0  0  0  0  0  0  0  0  0  0
  1  2  1  0
  2  3  1  0
  4  3  1  0
  5  4  1  0
  5 18  1  0
  6  5  2  0
  7  8  1  6
  7  9  1  0
  7  4  1  0
  9  1  1  0
 11 17  2  0
 11 10  1  0
 12 11  1  0
 13 15  1  0
 13 12  2  0
 14 13  1  0
 15 16  2  0
 16 17  1  0
 17  1  1  0
 19 20  1  0
 19 18  1  0
 21 20  1  0
 22 21  1  0
 23 22  2  0
 24 25  2  0
 24 23  1  0
 25 30  1  0
 26 27  2  0
 26 25  1  0
 27 28  1  0
 28 29  2  0
 30 29  1  0
 30 21  2  0
M  END
$$$$
