lig_024
     RDKit          3D

 30 33  0  0  0  0  0  0  0  0999 V2000
  126.6120  136.1200  107.9310 C   0  0  0  0  0  0  0  0  0  0  0  0
  127.1780  137.0660  106.9580 N   0  0  0  0  0  0  0  0  0  0  0  0
  126.9470  136.6660  105.5500 C   0  0  0  0  0  0  0  0  0  0  0  0
  125.7740  137.3520  104.8080 C   0  0  0  0  0  0  0  0  0  0  0  0
  125.7730  138.8180  104.9690 N   0  0  0  0  0  0  0  0  0  0  0  0
  126.7010  139.3550  105.9760 C   0  0  0  0  0  0  0  0  0  0  0  0
  126.6760  138.4380  107.2170 C   0  0  0  0  0  0  0  0  0  0  0  0
  125.6890  139.5570  103.7740 C   0  0  0  0  0  0  0  0  0  0  0  0
  126.8610  139.6080  102.9910 C   0  0  0  0  0  0  0  0  0  0  0  0
  126.9170  140.3050  101.7930 C   0  0  0  0  0  0  0  0  0  0  0  0
  125.7970  140.9860  101.3280 C   0  0  0  0  0  0  0  0  0  0  0  0
  124.6160  140.9550  102.0940 C   0  0  0  0  0  0  0  0  0  0  0  0
  123.1290  141.7350  101.6960 S   0  0  0  0  0  0  0  0  0  0  0  0
  122.3690  141.1710  103.1090 C   0  0  0  0  0  0  0  0  0  0  0  0
  123.2160  140.4050  103.8740 C   0  0  0  0  0  0  0  0  0  0  0  0
  124.5330  140.2570  103.3060 C   0  0  0  0  0  0  0  0  0  0  0  0
  125.7010  136.8220  108.9480 C   0  0  0  0  0  0  0  0  0  0  0  0
  124.3460  136.1260  109.1290 C   0  0  0  0  0  0  0  0  0  0  0  0
  123.1300  137.0520  109.0540 C   0  0  0  0  0  0  0  0  0  0  0  0
  123.3650  138.1820  108.2140 O   0  0  0  0  0  0  0  0  0  0  0  0
  123.7090  141.0270  110.5220 C   0  0  0  0  0  0  0  0  0  0  0  0
  123.5620  139.6990  110.1410 C   0  0  0  0  0  0  0  0  0  0  0  0
  123.5040  139.4150  108.7830 C   0  0  0  0  0  0  0  0  0  0  0  0
  123.5960  140.4640  107.8690 C   0  0  0  0  0  0  0  0  0  0  0  0
  123.7410  141.7580  108.3420 C   0  0  0  0  0  0  0  0  0  0  0  0
  123.7990  142.0720  109.6510 N   0  0  0  0  0  0  0  0  0  0  0  0
  125.0900  141.0330  114.0410 C   0  0  0  0  0  0  0  0  0  0  0  0
  124.7840  140.7370  112.6680 N   0  0  0  0  0  0  0  0  0  0  0  0
  123.7740  141.3740  111.9800 C   0  0  0  0  0  0  0  0  0  0  0  0
  122.9880  142.1680  112.4860 O   0  0  0  0  0  0  0  0  0  0  0  0
  1 17  1  0
  2  7  1  0
  2  1  1  0
  3  2  1  0
  4  5  1  0
  4  3  1  0
  5  6  1  0
  6  7  1  0
  8  5  1  0
  9  8  1  0
 10  9  2  0
 11 10  1  0
 11 12  2  0
 12 16  1  0
 13 12  1  0
 13 14  1  0
 14 15  2  0
 16  8  2  0
 16 15  1  0
 17 18  1  0
 19 18  1  0
 20 23  1  0
 20 19  1  0
 21 29  1  0
 22 21  1  0
 23 22  2  0
 24 25  2  0
 24 23  1  0
 25 26  1  0
 26 21  2  0
 28 27  1  0
 29 30  2  0
 29 28  1  0
M  END
$$$$
