lig_347
     RDKit          3D

 32 35  0  0  1  0  0  0  0  0999 V2000
   -1.8190    7.2790   16.4880 N   0  0  0  0  0  0  0  0  0  0  0  0
   -2.2870    8.5720   16.3180 C   0  0  0  0  0  0  0  0  0  0  0  0
   -1.3350    9.5030   16.2400 N   0  0  0  0  0  0  0  0  0  0  0  0
   -1.6950   10.8040   16.0560 C   0  0  0  0  0  0  0  0  0  0  0  0
   -3.0350   11.1430   15.9660 C   0  0  0  0  0  0  0  0  0  0  0  0
   -3.8440   12.6450   15.7420 S   0  0  0  0  0  0  0  0  0  0  0  0
   -5.3860   11.9170   15.7810 C   0  0  0  0  0  0  0  0  0  0  0  0
   -5.3040   10.5560   15.9610 C   0  0  0  0  0  0  0  0  0  0  0  0
   -3.9560   10.1040   16.0670 C   0  0  0  0  0  0  0  0  0  0  0  0
   -3.5910    8.8140   16.2470 N   0  0  0  0  0  0  0  0  0  0  0  0
   -0.5750   11.7830   15.9670 C   0  0  0  0  0  0  0  0  0  0  0  0
    0.5070   11.5220   15.4570 O   0  0  0  0  0  0  0  0  0  0  0  0
   -0.8680   13.0240   16.5060 N   0  0  0  0  0  0  0  0  0  0  0  0
    0.1190   14.1190   16.5630 C   0  0  0  0  0  0  0  0  0  0  0  0
    0.5100   14.7380   15.2050 C   0  0  0  0  0  0  0  0  0  0  0  0
    0.3430   16.0310   15.8440 N   0  0  0  0  0  0  0  0  0  0  0  0
    0.3380   17.3230   15.3940 C   0  0  0  0  0  0  0  0  0  0  0  0
   -0.2400   18.1940   16.0500 O   0  0  0  0  0  0  0  0  0  0  0  0
   -0.4600   15.4940   16.9360 C   0  0  0  0  0  0  0  0  0  0  0  0
    1.1020   17.6700   14.0960 C   0  0  0  0  0  0  0  0  0  0  0  0
    1.1560   19.2070   13.9560 C   0  0  0  0  0  0  0  0  0  0  0  0
    2.5440   17.1520   14.1780 C   0  0  0  0  0  0  0  0  0  0  0  0
    0.3980   17.1130   12.8510 C   0  0  0  0  0  0  0  0  0  0  0  0
   -3.7020    5.7200   16.2300 C   0  0  0  0  0  0  0  0  0  0  0  0
   -2.6940    6.3510   17.1960 C   0  0  1  0  0  0  0  0  0  0  0  0
   -1.8420    5.2720   17.8400 C   0  0  0  0  0  0  0  0  0  0  0  0
   -0.5140    5.5300   18.1840 C   0  0  0  0  0  0  0  0  0  0  0  0
    0.3150    4.6290   18.7610 N   0  0  0  0  0  0  0  0  0  0  0  0
   -0.2040    3.4030   19.0110 C   0  0  0  0  0  0  0  0  0  0  0  0
   -1.5060    3.0500   18.7090 C   0  0  0  0  0  0  0  0  0  0  0  0
   -1.9620    1.8210   18.9800 F   0  0  0  0  0  0  0  0  0  0  0  0
   -2.3370    3.9900   18.1170 C   0  0  0  0  0  0  0  0  0  0  0  0
  1 25  1  0
  2  1  1  0
  3  2  2  0
  4  3  1  0
  5  4  2  0
  5  9  1  0
  6  7  1  0
  6  5  1  0
  7  8  2  0
  8  9  1  0
  9 10  2  0
 10  2  1  0
 11  4  1  0
 11 13  1  0
 12 11  2  0
 13 14  1  0
 14 19  1  0
 15 16  1  0
 15 14  1  0
 16 19  1  0
 17 16  1  0
 17 18  2  0
 20 22  1  0
 20 17  1  0
 21 20  1  0
 23 20  1  0
 25 24  1  6
 25 26  1  0
 26 32  1  0
 26 27  2  0
 27 28  1  0
 28 29  2  0
 30 31  1  0
 30 29  1  0
 32 30  2  0
M  END
$$$$
