lig_043
     RDKit          3D

 38 42  0  0  1  0  0  0  0  0999 V2000
    1.4580  -16.5750   13.0070 C   0  0  1  0  0  0  0  0  0  0  0  0
    0.0540  -17.0020   13.4380 C   0  0  0  0  0  0  0  0  0  0  0  0
   -0.5920  -18.0020   12.4740 C   0  0  0  0  0  0  0  0  0  0  0  0
    0.4110  -18.8870   11.7010 C   0  0  1  0  0  0  0  0  0  0  0  0
    1.6700  -19.1060   12.5480 C   0  0  0  0  0  0  0  0  0  0  0  0
    2.3850  -17.7950   12.9010 C   0  0  0  0  0  0  0  0  0  0  0  0
    0.5070  -14.8230   11.5220 C   0  0  0  0  0  0  0  0  0  0  0  0
   -0.2920  -14.4340   12.3620 O   0  0  0  0  0  0  0  0  0  0  0  0
    1.4190  -15.8360   11.7490 N   0  0  0  0  0  0  0  0  0  0  0  0
   -1.7830   -9.8980   10.2580 C   0  0  0  0  0  0  0  0  0  0  0  0
   -1.0380  -11.0690    9.8620 N   0  0  0  0  0  0  0  0  0  0  0  0
   -0.6860  -12.1150   10.6600 C   0  0  0  0  0  0  0  0  0  0  0  0
   -0.0140  -12.9830    9.8410 C   0  0  0  0  0  0  0  0  0  0  0  0
    0.5580  -14.2130   10.1780 C   0  0  0  0  0  0  0  0  0  0  0  0
    1.1730  -14.8310    9.0590 C   0  0  0  0  0  0  0  0  0  0  0  0
    1.2150  -14.2470    7.7560 C   0  0  0  0  0  0  0  0  0  0  0  0
    0.6420  -12.9950    7.4470 C   0  0  0  0  0  0  0  0  0  0  0  0
    0.0130  -12.3640    8.5340 C   0  0  0  0  0  0  0  0  0  0  0  0
   -0.6240  -11.1820    8.5830 N   0  0  0  0  0  0  0  0  0  0  0  0
   -0.2850  -20.1990   11.2770 C   0  0  0  0  0  0  0  0  0  0  0  0
    0.4720  -21.4910   11.6400 C   0  0  0  0  0  0  0  0  0  0  0  0
   -0.1840  -22.3590   12.6270 N   0  0  0  0  0  0  0  0  0  0  0  0
    0.6570  -22.6630   13.7960 C   0  0  0  0  0  0  0  0  0  0  0  0
    0.6660  -21.6180   14.9210 C   0  0  0  0  0  0  0  0  0  0  0  0
   -0.5240  -21.6280   15.8400 C   0  0  0  0  0  0  0  0  0  0  0  0
   -0.3760  -21.1550   17.1360 C   0  0  0  0  0  0  0  0  0  0  0  0
   -1.3650  -21.0900   18.0450 N   0  0  0  0  0  0  0  0  0  0  0  0
   -2.5650  -21.5190   17.6320 C   0  0  0  0  0  0  0  0  0  0  0  0
   -2.8280  -21.9830   16.4000 N   0  0  0  0  0  0  0  0  0  0  0  0
   -1.8100  -22.0210   15.5040 C   0  0  0  0  0  0  0  0  0  0  0  0
   -2.2030  -22.5350   14.1420 C   0  0  0  0  0  0  0  0  0  0  0  0
   -1.5110  -21.8200   12.9780 C   0  0  0  0  0  0  0  0  0  0  0  0
   -3.7100  -21.4240   18.5960 C   0  0  0  0  0  0  0  0  0  0  0  0
   -4.7170  -20.3470   18.2080 C   0  0  0  0  0  0  0  0  0  0  0  0
   -6.1420  -20.8510   18.1860 C   0  0  0  0  0  0  0  0  0  0  0  0
   -6.2530  -21.9810   17.4570 F   0  0  0  0  0  0  0  0  0  0  0  0
   -6.5410  -21.1480   19.4460 F   0  0  0  0  0  0  0  0  0  0  0  0
   -7.0110  -19.9440   17.7010 F   0  0  0  0  0  0  0  0  0  0  0  0
  1  9  1  6
  1  2  1  0
  3  2  1  0
  4 20  1  1
  4  3  1  0
  4  5  1  0
  5  6  1  0
  6  1  1  0
  7  9  1  0
  7  8  2  0
 11 10  1  0
 11 12  1  0
 13 14  1  0
 13 12  2  0
 14  7  1  0
 15 14  2  0
 16 15  1  0
 17 16  2  0
 17 18  1  0
 18 19  2  0
 18 13  1  0
 19 11  1  0
 20 21  1  0
 21 22  1  0
 22 32  1  0
 22 23  1  0
 23 24  1  0
 24 25  1  0
 25 26  1  0
 26 27  2  0
 28 27  1  0
 28 33  1  0
 29 28  2  0
 30 25  2  0
 30 29  1  0
 31 30  1  0
 32 31  1  0
 34 33  1  0
 35 34  1  0
 35 37  1  0
 36 35  1  0
 38 35  1  0
M  END
$$$$
