lig_201
     RDKit          3D

 26 30  0  0  0  0  0  0  0  0999 V2000
    1.5230    8.5420   18.2160 N   0  0  0  0  0  0  0  0  0  0  0  0
    0.2690    8.2800   17.7160 C   0  0  0  0  0  0  0  0  0  0  0  0
   -0.4190    9.2290   17.1120 N   0  0  0  0  0  0  0  0  0  0  0  0
   -1.6940    8.8350   16.6470 C   0  0  0  0  0  0  0  0  0  0  0  0
   -2.6860    9.5760   16.0010 C   0  0  0  0  0  0  0  0  0  0  0  0
   -3.7690    8.8260   15.7360 N   0  0  0  0  0  0  0  0  0  0  0  0
   -3.4390    7.5880   16.1960 N   0  0  0  0  0  0  0  0  0  0  0  0
   -2.2090    7.5720   16.7730 C   0  0  0  0  0  0  0  0  0  0  0  0
   -1.4620    6.5700   17.4040 C   0  0  0  0  0  0  0  0  0  0  0  0
   -1.6710    5.3060   17.6480 N   0  0  0  0  0  0  0  0  0  0  0  0
   -0.4910    4.9390   18.2740 C   0  0  0  0  0  0  0  0  0  0  0  0
    0.4250    5.9210   18.4120 N   0  0  0  0  0  0  0  0  0  0  0  0
   -0.2400    6.9600   17.8590 N   0  0  0  0  0  0  0  0  0  0  0  0
   -0.2440    3.4780   18.7760 C   0  0  0  0  0  0  0  0  0  0  0  0
   -1.2150    2.5180   18.9930 C   0  0  0  0  0  0  0  0  0  0  0  0
   -0.5460    1.3540   19.4400 C   0  0  0  0  0  0  0  0  0  0  0  0
    0.7910    1.6720   19.4700 C   0  0  0  0  0  0  0  0  0  0  0  0
    0.9850    2.9540   19.0710 O   0  0  0  0  0  0  0  0  0  0  0  0
   -4.3900    6.4970   16.0990 C   0  0  0  0  0  0  0  0  0  0  0  0
   -5.2020    6.2680   17.3750 C   0  0  0  0  0  0  0  0  0  0  0  0
   -6.1080    5.0620   17.3100 C   0  0  0  0  0  0  0  0  0  0  0  0
   -5.7400    3.9360   16.5620 C   0  0  0  0  0  0  0  0  0  0  0  0
   -6.5840    2.8270   16.4930 C   0  0  0  0  0  0  0  0  0  0  0  0
   -7.8030    2.8340   17.1680 C   0  0  0  0  0  0  0  0  0  0  0  0
   -8.1800    3.9500   17.9110 C   0  0  0  0  0  0  0  0  0  0  0  0
   -7.3380    5.0610   17.9820 C   0  0  0  0  0  0  0  0  0  0  0  0
  2 13  1  0
  2  1  1  0
  3  2  2  0
  4  8  2  0
  4  3  1  0
  5  4  1  0
  6  5  2  0
  6  7  1  0
  7  8  1  0
  8  9  1  0
  9 10  2  0
  9 13  1  0
 10 11  1  0
 11 12  2  0
 11 14  1  0
 13 12  1  0
 14 15  2  0
 14 18  1  0
 15 16  1  0
 16 17  2  0
 18 17  1  0
 19  7  1  0
 19 20  1  0
 21 20  1  0
 21 26  1  0
 22 21  2  0
 23 22  1  0
 23 24  2  0
 24 25  1  0
 25 26  2  0
M  END
$$$$
