lig_028
     RDKit          3D

 35 38  0  0  1  0  0  0  0  0999 V2000
    0.5760  -19.3980   11.8230 C   0  0  0  0  0  0  0  0  0  0  0  0
   -0.3420  -23.2810   13.6160 C   0  0  1  0  0  0  0  0  0  0  0  0
   -0.9090  -23.0160   12.2110 C   0  0  0  0  0  0  0  0  0  0  0  0
   -0.3280  -21.7780   11.5160 C   0  0  0  0  0  0  0  0  0  0  0  0
    0.0770  -20.6860   12.5110 C   0  0  1  0  0  0  0  0  0  0  0  0
    1.1580  -21.2130   13.4760 C   0  0  0  0  0  0  0  0  0  0  0  0
    1.0730  -22.7180   13.7540 C   0  0  0  0  0  0  0  0  0  0  0  0
   -1.8890  -23.5450   15.5470 C   0  0  0  0  0  0  0  0  0  0  0  0
   -1.8340  -24.7720   15.5210 O   0  0  0  0  0  0  0  0  0  0  0  0
   -1.2110  -22.7390   14.6540 N   0  0  0  0  0  0  0  0  0  0  0  0
   -2.7630  -22.8060   16.5400 C   0  0  0  0  0  0  0  0  0  0  0  0
   -0.7030  -20.3870   20.7480 C   0  0  0  0  0  0  0  0  0  0  0  0
   -0.9780  -21.1750   19.5220 C   0  0  0  0  0  0  0  0  0  0  0  0
   -0.0890  -21.8930   18.8700 N   0  0  0  0  0  0  0  0  0  0  0  0
   -0.6290  -22.5160   17.7650 N   0  0  0  0  0  0  0  0  0  0  0  0
   -1.9140  -22.2540   17.6250 C   0  0  0  0  0  0  0  0  0  0  0  0
   -2.5510  -21.2110   18.8320 S   0  0  0  0  0  0  0  0  0  0  0  0
   -0.5020  -18.3060   11.7220 C   0  0  0  0  0  0  0  0  0  0  0  0
    0.0660  -16.9530   11.5140 N   0  0  0  0  0  0  0  0  0  0  0  0
    0.0350  -16.5790   10.0850 C   0  0  0  0  0  0  0  0  0  0  0  0
    0.8230  -15.3050    9.7350 C   0  0  0  0  0  0  0  0  0  0  0  0
    0.0670  -14.0370   10.0200 C   0  0  0  0  0  0  0  0  0  0  0  0
   -0.2550  -13.1470    8.9900 C   0  0  0  0  0  0  0  0  0  0  0  0
   -0.9690  -11.9870    9.2730 C   0  0  0  0  0  0  0  0  0  0  0  0
   -1.3410  -11.7390   10.5860 C   0  0  0  0  0  0  0  0  0  0  0  0
   -1.0330  -12.5780   11.5990 N   0  0  0  0  0  0  0  0  0  0  0  0
   -0.3370  -13.7070   11.3130 C   0  0  0  0  0  0  0  0  0  0  0  0
   -0.0240  -14.6070   12.4760 C   0  0  0  0  0  0  0  0  0  0  0  0
   -0.6810  -15.9850   12.3540 C   0  0  0  0  0  0  0  0  0  0  0  0
   -2.1500  -10.5250   10.9480 C   0  0  0  0  0  0  0  0  0  0  0  0
   -3.0140  -10.0110    9.8020 C   0  0  0  0  0  0  0  0  0  0  0  0
   -4.4280  -10.5540    9.8130 C   0  0  0  0  0  0  0  0  0  0  0  0
   -4.5080  -11.8130    9.3460 F   0  0  0  0  0  0  0  0  0  0  0  0
   -4.9730  -10.5060   11.0450 F   0  0  0  0  0  0  0  0  0  0  0  0
   -5.2050   -9.7880    9.0050 F   0  0  0  0  0  0  0  0  0  0  0  0
  2  7  1  0
  2 10  1  1
  3  2  1  0
  4  3  1  0
  4  5  1  0
  5  1  1  6
  5  6  1  0
  6  7  1  0
  8 11  1  0
  9  8  2  0
 10  8  1  0
 11 16  1  0
 13 12  1  0
 14 13  2  0
 15 14  1  0
 16 15  2  0
 16 17  1  0
 17 13  1  0
 18  1  1  0
 19 18  1  0
 19 29  1  0
 20 19  1  0
 21 22  1  0
 21 20  1  0
 22 27  2  0
 23 24  2  0
 23 22  1  0
 24 25  1  0
 25 30  1  0
 25 26  2  0
 27 26  1  0
 27 28  1  0
 29 28  1  0
 31 32  1  0
 31 30  1  0
 32 34  1  0
 33 32  1  0
 35 32  1  0
M  END
$$$$
