lig_033
     RDKit          3D

 27 30  0  0  1  0  0  0  0  0999 V2000
  183.5380  168.2500  174.2520 C   0  0  2  0  0  0  0  0  0  0  0  0
  182.9160  168.3250  172.8420 C   0  0  0  0  0  0  0  0  0  0  0  0
  183.6970  169.2420  171.9050 C   0  0  0  0  0  0  0  0  0  0  0  0
  185.0820  169.3380  172.2180 O   0  0  0  0  0  0  0  0  0  0  0  0
  185.6820  168.1530  172.7550 C   0  0  1  0  0  0  0  0  0  0  0  0
  185.7440  167.0500  171.7050 C   0  0  0  0  0  0  0  0  0  0  0  0
  186.8920  167.5130  170.8310 C   0  0  0  0  0  0  0  0  0  0  0  0
  187.8500  168.1160  171.7060 O   0  0  0  0  0  0  0  0  0  0  0  0
  187.1840  168.4250  172.9480 C   0  0  0  0  0  0  0  0  0  0  0  0
  185.0100  167.7570  174.0820 C   0  0  0  0  0  0  0  0  0  0  0  0
  182.8300  167.2610  175.1940 C   0  0  0  0  0  0  0  0  0  0  0  0
  181.7390  167.6070  175.9920 C   0  0  0  0  0  0  0  0  0  0  0  0
  181.1660  166.6460  176.8230 C   0  0  0  0  0  0  0  0  0  0  0  0
  181.6870  165.3600  176.8460 C   0  0  0  0  0  0  0  0  0  0  0  0
  182.7670  165.0880  176.0310 C   0  0  0  0  0  0  0  0  0  0  0  0
  183.3420  166.0020  175.2180 N   0  0  0  0  0  0  0  0  0  0  0  0
  183.5480  169.6580  174.9430 C   0  0  0  0  0  0  0  0  0  0  0  0
  184.6500  169.8480  175.9970 C   0  0  0  0  0  0  0  0  0  0  0  0
  184.3200  170.9920  176.8480 N   0  0  0  0  0  0  0  0  0  0  0  0
  183.3660  170.6200  177.8910 C   0  0  0  0  0  0  0  0  0  0  0  0
  180.9300  175.1410  178.8740 Cl  0  0  0  0  0  0  0  0  0  0  0  0
  180.9410  173.5430  178.2330 C   0  0  0  0  0  0  0  0  0  0  0  0
  179.7930  173.0330  177.6290 C   0  0  0  0  0  0  0  0  0  0  0  0
  179.8030  171.7400  177.1080 C   0  0  0  0  0  0  0  0  0  0  0  0
  180.9600  170.9620  177.1940 C   0  0  0  0  0  0  0  0  0  0  0  0
  182.1190  171.4670  177.8040 C   0  0  0  0  0  0  0  0  0  0  0  0
  182.1010  172.7710  178.3210 C   0  0  0  0  0  0  0  0  0  0  0  0
  1 17  1  1
  1 11  1  0
  2  1  1  0
  3  4  1  0
  3  2  1  0
  4  5  1  0
  5  6  1  6
  5  9  1  0
  5 10  1  0
  7  6  1  0
  7  8  1  0
  8  9  1  0
 10  1  1  0
 11 16  1  0
 11 12  2  0
 12 13  1  0
 13 14  2  0
 15 14  1  0
 16 15  2  0
 17 18  1  0
 18 19  1  0
 19 20  1  0
 22 27  2  0
 22 21  1  0
 23 22  1  0
 24 25  1  0
 24 23  2  0
 25 26  2  0
 26 20  1  0
 26 27  1  0
M  END
$$$$
