lig_305
     RDKit          3D

 29 32  0  0  0  0  0  0  0  0999 V2000
    0.3100  -18.8440   12.5960 C   0  0  0  0  0  0  0  0  0  0  0  0
    1.3430  -19.5480   11.9870 C   0  0  0  0  0  0  0  0  0  0  0  0
    1.7230  -20.7920   12.4880 C   0  0  0  0  0  0  0  0  0  0  0  0
    1.0710  -21.3470   13.6020 C   0  0  0  0  0  0  0  0  0  0  0  0
    0.0300  -20.6310   14.2190 C   0  0  0  0  0  0  0  0  0  0  0  0
   -0.3400  -19.3750   13.7080 C   0  0  0  0  0  0  0  0  0  0  0  0
   -0.6760  -21.1730   15.4400 C   0  0  0  0  0  0  0  0  0  0  0  0
   -1.4020  -22.5060   15.1920 C   0  0  0  0  0  0  0  0  0  0  0  0
   -0.5160  -23.6820   15.2430 N   0  0  0  0  0  0  0  0  0  0  0  0
    0.4120  -23.7590   14.1050 C   0  0  0  0  0  0  0  0  0  0  0  0
    1.5150  -22.6900   14.1300 C   0  0  0  0  0  0  0  0  0  0  0  0
   -0.0440  -17.5600   12.1020 N   0  0  0  0  0  0  0  0  0  0  0  0
    0.6670  -16.2090   12.8280 S   0  0  0  0  0  0  0  0  0  0  0  0
    2.1030  -16.3760   12.8730 O   0  0  0  0  0  0  0  0  0  0  0  0
   -0.0880  -15.9660   14.0410 O   0  0  0  0  0  0  0  0  0  0  0  0
   -0.6600  -11.7060    8.9710 C   0  0  0  0  0  0  0  0  0  0  0  0
   -0.3170  -12.8290    9.9100 C   0  0  0  0  0  0  0  0  0  0  0  0
   -0.9840  -12.9250   11.1420 C   0  0  0  0  0  0  0  0  0  0  0  0
   -0.6890  -13.9570   12.0340 C   0  0  0  0  0  0  0  0  0  0  0  0
    0.2760  -14.9060   11.6920 C   0  0  0  0  0  0  0  0  0  0  0  0
    0.9650  -14.8200   10.4800 C   0  0  0  0  0  0  0  0  0  0  0  0
    0.6610  -13.7880    9.5910 C   0  0  0  0  0  0  0  0  0  0  0  0
    1.5200  -13.7350    8.0930 Cl  0  0  0  0  0  0  0  0  0  0  0  0
   -1.2880  -24.9320   15.4270 C   0  0  0  0  0  0  0  0  0  0  0  0
   -2.3210  -24.8840   16.5220 C   0  0  0  0  0  0  0  0  0  0  0  0
   -2.0970  -24.7420   17.9140 C   0  0  0  0  0  0  0  0  0  0  0  0
   -3.3480  -24.7350   18.4800 C   0  0  0  0  0  0  0  0  0  0  0  0
   -4.2280  -24.8590   17.4450 N   0  0  0  0  0  0  0  0  0  0  0  0
   -3.6340  -24.9400   16.2440 N   0  0  0  0  0  0  0  0  0  0  0  0
  1  6  2  0
  2  3  2  0
  2  1  1  0
  3  4  1  0
  4 11  1  0
  4  5  2  0
  5  7  1  0
  6  5  1  0
  8  9  1  0
  8  7  1  0
  9 24  1  0
 10 11  1  0
 10  9  1  0
 12  1  1  0
 12 13  1  0
 13 14  2  0
 13 15  2  0
 16 17  1  0
 17 18  1  0
 18 19  2  0
 20 19  1  0
 20 13  1  0
 21 20  2  0
 22 17  2  0
 22 21  1  0
 23 22  1  0
 24 25  1  0
 25 26  1  0
 26 27  2  0
 28 27  1  0
 29 25  2  0
 29 28  1  0
M  END
$$$$
