lig_004
     RDKit          3D

 28 32  0  0  0  0  0  0  0  0999 V2000
  179.2680  161.8190  134.3560 N   0  0  0  0  0  0  0  0  0  0  0  0
  180.2350  162.0720  133.4030 C   0  0  0  0  0  0  0  0  0  0  0  0
  181.3710  161.3220  133.3010 N   0  0  0  0  0  0  0  0  0  0  0  0
  182.5510  162.0900  132.8620 C   0  0  0  0  0  0  0  0  0  0  0  0
  183.7620  161.1720  132.7630 C   0  0  0  0  0  0  0  0  0  0  0  0
  183.5270  160.0570  131.7320 C   0  0  0  0  0  0  0  0  0  0  0  0
  182.0400  159.8440  131.4160 C   0  0  0  0  0  0  0  0  0  0  0  0
  181.1970  159.9960  132.6750 C   0  0  0  0  0  0  0  0  0  0  0  0
  179.9240  163.1300  132.6890 N   0  0  0  0  0  0  0  0  0  0  0  0
  178.7110  163.5590  133.1590 C   0  0  0  0  0  0  0  0  0  0  0  0
  177.9260  164.6410  132.7350 C   0  0  0  0  0  0  0  0  0  0  0  0
  176.7140  164.8940  133.3890 C   0  0  0  0  0  0  0  0  0  0  0  0
  176.2940  164.0870  134.4480 C   0  0  0  0  0  0  0  0  0  0  0  0
  177.0660  163.0040  134.8850 C   0  0  0  0  0  0  0  0  0  0  0  0
  178.2710  162.7650  134.2130 C   0  0  0  0  0  0  0  0  0  0  0  0
  184.3090  160.2520  130.5170 N   0  0  0  0  0  0  0  0  0  0  0  0
  184.5330  159.3430  129.5200 C   0  0  0  0  0  0  0  0  0  0  0  0
  185.3130  160.0040  128.6020 C   0  0  0  0  0  0  0  0  0  0  0  0
  185.5650  161.2870  129.0110 N   0  0  0  0  0  0  0  0  0  0  0  0
  184.9500  161.4080  130.1660 C   0  0  0  0  0  0  0  0  0  0  0  0
  179.3610  160.8570  135.4440 C   0  0  0  0  0  0  0  0  0  0  0  0
  182.6300  162.6000  139.7140 F   0  0  0  0  0  0  0  0  0  0  0  0
  181.8460  162.1910  138.7080 C   0  0  0  0  0  0  0  0  0  0  0  0
  180.5510  162.6820  138.6050 C   0  0  0  0  0  0  0  0  0  0  0  0
  179.7320  162.2560  137.5570 C   0  0  0  0  0  0  0  0  0  0  0  0
  180.2000  161.3240  136.6140 C   0  0  0  0  0  0  0  0  0  0  0  0
  181.5230  160.8580  136.7310 C   0  0  0  0  0  0  0  0  0  0  0  0
  182.3410  161.2860  137.7800 C   0  0  0  0  0  0  0  0  0  0  0  0
  1 21  1  0
  2  1  1  0
  3  2  1  0
  4  3  1  0
  5  4  1  0
  6  5  1  0
  7  6  1  0
  7  8  1  0
  8  3  1  0
  9 10  1  0
  9  2  2  0
 10 15  1  0
 11 10  2  0
 11 12  1  0
 12 13  2  0
 13 14  1  0
 15  1  1  0
 15 14  2  0
 16  6  1  0
 17 16  1  0
 18 19  1  0
 18 17  2  0
 19 20  2  0
 20 16  1  0
 21 26  1  0
 23 22  1  0
 24 23  1  0
 25 24  2  0
 26 27  2  0
 26 25  1  0
 27 28  1  0
 28 23  2  0
M  END
$$$$
