lig_029
     RDKit          3D

 23 25  0  0  1  0  0  0  0  0999 V2000
   22.4750   16.2170    7.9080 C   0  0  0  0  0  0  0  0  0  0  0  0
   22.1930   17.2850    7.0540 C   0  0  0  0  0  0  0  0  0  0  0  0
   22.6720   17.2880    5.7380 C   0  0  0  0  0  0  0  0  0  0  0  0
   23.4350   16.2200    5.2690 C   0  0  0  0  0  0  0  0  0  0  0  0
   24.0100   16.2290    3.6480 Cl  0  0  0  0  0  0  0  0  0  0  0  0
   23.7310   15.1500    6.1030 C   0  0  0  0  0  0  0  0  0  0  0  0
   23.2630   15.1630    7.4180 C   0  0  0  0  0  0  0  0  0  0  0  0
   22.0620   16.0980    9.2030 O   0  0  0  0  0  0  0  0  0  0  0  0
   21.4880   17.2210    9.8860 C   0  0  0  0  0  0  0  0  0  0  0  0
   20.9610   16.8200   11.2800 C   0  0  1  0  0  0  0  0  0  0  0  0
   21.7260   17.5620   12.3640 C   0  0  0  0  0  0  0  0  0  0  0  0
   21.2560   17.5510   13.6860 C   0  0  0  0  0  0  0  0  0  0  0  0
   21.9610   18.2120   14.6940 C   0  0  0  0  0  0  0  0  0  0  0  0
   23.1430   18.8870   14.3930 C   0  0  0  0  0  0  0  0  0  0  0  0
   23.6220   18.9030   13.0850 C   0  0  0  0  0  0  0  0  0  0  0  0
   22.9190   18.2420   12.0760 C   0  0  0  0  0  0  0  0  0  0  0  0
   19.1150   17.9330   10.2700 C   0  0  0  0  0  0  0  0  0  0  0  0
   19.5620   17.1440   11.3670 O   0  0  0  0  0  0  0  0  0  0  0  0
   23.5400   14.0810    8.2220 O   0  0  0  0  0  0  0  0  0  0  0  0
   24.9540   13.8250    8.4040 C   0  0  0  0  0  0  0  0  0  0  0  0
   25.3170   12.8910    9.5830 C   0  0  0  0  0  0  0  0  0  0  0  0
   26.4940   13.7500    9.8520 N   0  0  0  0  0  0  0  0  0  0  0  0
   25.7800   14.8700    9.1960 C   0  0  0  0  0  0  0  0  0  0  0  0
  1  8  1  0
  2  1  1  0
  3  2  2  0
  4  3  1  0
  4  6  2  0
  5  4  1  0
  6  7  1  0
  7  1  2  0
  7 19  1  0
  8  9  1  0
 10  9  1  6
 10 18  1  0
 10 11  1  0
 11 12  2  0
 12 13  1  0
 14 13  2  0
 15 14  1  0
 16 11  1  0
 16 15  2  0
 17 18  1  0
 19 20  1  0
 20 23  1  0
 20 21  1  0
 21 22  1  0
 23 22  1  0
M  END
$$$$
