lig_414
     RDKit          3D

 22 24  0  0  1  0  0  0  0  0999 V2000
    0.1030  -15.3080   11.1230 C   0  0  0  0  0  0  0  0  0  0  0  0
   -0.1100  -13.8740   10.6420 C   0  0  0  0  0  0  0  0  0  0  0  0
   -0.6730  -12.9600   11.5640 C   0  0  0  0  0  0  0  0  0  0  0  0
   -0.8570  -11.6140   11.2510 C   0  0  0  0  0  0  0  0  0  0  0  0
   -0.4750  -11.1420   10.0050 C   0  0  0  0  0  0  0  0  0  0  0  0
    0.0850  -12.0190    9.0800 C   0  0  0  0  0  0  0  0  0  0  0  0
    0.2720  -13.3830    9.3850 C   0  0  0  0  0  0  0  0  0  0  0  0
    0.8550  -14.2760    8.3310 C   0  0  0  0  0  0  0  0  0  0  0  0
   -0.1520  -15.3280    7.9070 C   0  0  0  0  0  0  0  0  0  0  0  0
   -0.2580  -16.5330    8.8100 C   0  0  0  0  0  0  0  0  0  0  0  0
   -0.5450  -17.7540    8.1510 C   0  0  0  0  0  0  0  0  0  0  0  0
   -0.7070  -18.9500    8.8440 C   0  0  0  0  0  0  0  0  0  0  0  0
   -0.6030  -18.9500   10.2220 C   0  0  0  0  0  0  0  0  0  0  0  0
   -0.3390  -17.7550   10.8900 C   0  0  0  0  0  0  0  0  0  0  0  0
   -0.1560  -16.5180   10.2130 C   0  0  0  0  0  0  0  0  0  0  0  0
    1.3800  -15.4410   12.0160 C   0  0  0  0  0  0  0  0  0  0  0  0
   -0.3170  -15.8970   13.8530 C   0  0  0  0  0  0  0  0  0  0  0  0
    1.1630  -15.6350   13.5360 C   0  0  1  0  0  0  0  0  0  0  0  0
    1.9820  -16.8400   14.0760 C   0  0  0  0  0  0  0  0  0  0  0  0
    1.3040  -18.1430   13.9530 N   0  0  0  0  0  0  0  0  0  0  0  0
    1.9400  -18.9960   12.9460 C   0  0  0  0  0  0  0  0  0  0  0  0
    1.2990  -18.8340   15.2460 C   0  0  0  0  0  0  0  0  0  0  0  0
  1 16  1  0
  2  1  1  0
  2  3  2  0
  4  3  1  0
  5  4  2  0
  6  7  2  0
  6  5  1  0
  7  2  1  0
  8  7  1  0
  9  8  1  0
  9 10  1  0
 10 15  1  0
 11 10  2  0
 11 12  1  0
 12 13  2  0
 13 14  1  0
 15 14  2  0
 15  1  1  0
 16 18  1  0
 18 17  1  6
 18 19  1  0
 20 19  1  0
 20 22  1  0
 21 20  1  0
M  END
$$$$
