lig_035
     RDKit          3D

 28 30  0  0  1  0  0  0  0  0999 V2000
  -31.5880   10.3790    6.7330 C   0  0  0  0  0  0  0  0  0  0  0  0
  -32.3470    9.4310    7.5690 N   0  0  0  0  0  0  0  0  0  0  0  0
  -32.5110    8.1170    6.9330 C   0  0  0  0  0  0  0  0  0  0  0  0
  -31.8580    6.9440    7.6850 C   0  0  0  0  0  0  0  0  0  0  0  0
  -34.7100    4.0330    9.1480 C   0  0  0  0  0  0  0  0  0  0  0  0
  -33.4530    4.1470    9.7410 C   0  0  0  0  0  0  0  0  0  0  0  0
  -32.5300    5.0850    9.2640 C   0  0  0  0  0  0  0  0  0  0  0  0
  -32.8490    5.9200    8.1860 C   0  0  0  0  0  0  0  0  0  0  0  0
  -34.1100    5.8000    7.5930 C   0  0  0  0  0  0  0  0  0  0  0  0
  -35.0270    4.8600    8.0680 C   0  0  0  0  0  0  0  0  0  0  0  0
  -35.6980    3.1600    9.5060 O   0  0  0  0  0  0  0  0  0  0  0  0
  -37.0550    3.6040    9.4440 C   0  0  0  0  0  0  0  0  0  0  0  0
  -37.5630    3.9550   10.8420 C   0  0  0  0  0  0  0  0  0  0  0  0
  -36.6210    6.2280   11.5100 C   0  0  0  0  0  0  0  0  0  0  0  0
  -37.8360    5.4460   11.0350 C   0  0  0  0  0  0  0  0  0  0  0  0
  -30.3700   10.9670    7.4990 C   0  0  1  0  0  0  0  0  0  0  0  0
  -29.1020   11.0870    6.6820 C   0  0  0  0  0  0  0  0  0  0  0  0
  -28.8670   12.2880    5.9770 C   0  0  0  0  0  0  0  0  0  0  0  0
  -27.7170   12.4720    5.1950 C   0  0  0  0  0  0  0  0  0  0  0  0
  -26.7740   11.4590    5.0930 C   0  0  0  0  0  0  0  0  0  0  0  0
  -26.9810   10.2810    5.7920 C   0  0  0  0  0  0  0  0  0  0  0  0
  -26.1010    9.1960    5.8190 N   0  0  0  0  0  0  0  0  0  0  0  0
  -26.4900    8.1330    6.5940 C   0  0  0  0  0  0  0  0  0  0  0  0
  -25.8520    7.1080    6.7690 O   0  0  0  0  0  0  0  0  0  0  0  0
  -28.0530    8.4760    7.3280 S   0  0  0  0  0  0  0  0  0  0  0  0
  -28.1290   10.0900    6.5760 C   0  0  0  0  0  0  0  0  0  0  0  0
  -25.6910   11.6760    4.2990 O   0  0  0  0  0  0  0  0  0  0  0  0
  -30.6970   12.2260    8.0910 O   0  0  0  0  0  0  0  0  0  0  0  0
  1  2  1  0
  3  2  1  0
  3  4  1  0
  4  8  1  0
  5 11  1  0
  5  6  1  0
  7  6  2  0
  8  7  1  0
  9 10  1  0
  9  8  2  0
 10  5  2  0
 12 11  1  0
 12 13  1  0
 13 15  1  0
 15 14  1  0
 16  1  1  0
 16 28  1  6
 17 16  1  0
 18 17  1  0
 19 18  2  0
 20 19  1  0
 20 21  2  0
 21 22  1  0
 21 26  1  0
 22 23  1  0
 23 24  2  0
 23 25  1  0
 26 17  2  0
 26 25  1  0
 27 20  1  0
M  END
$$$$
