lig_306
     RDKit          3D

 34 38  0  0  0  0  0  0  0  0999 V2000
    1.7980  -19.3670   12.6660 C   0  0  0  0  0  0  0  0  0  0  0  0
    0.2660  -15.3500   12.0060 N   0  0  0  0  0  0  0  0  0  0  0  0
    1.4860  -15.5530   12.8200 C   0  0  0  0  0  0  0  0  0  0  0  0
    2.1340  -16.9300   12.5490 C   0  0  0  0  0  0  0  0  0  0  0  0
    1.1860  -18.0350   12.7770 N   0  0  0  0  0  0  0  0  0  0  0  0
    0.0040  -17.8660   11.9100 C   0  0  0  0  0  0  0  0  0  0  0  0
   -0.6780  -16.4840   12.0670 C   0  0  0  0  0  0  0  0  0  0  0  0
   -1.9520   -9.6020    9.7170 C   0  0  0  0  0  0  0  0  0  0  0  0
   -1.3440  -10.9340   10.0430 C   0  0  0  0  0  0  0  0  0  0  0  0
   -1.6770  -11.5830   11.2190 C   0  0  0  0  0  0  0  0  0  0  0  0
   -1.0900  -12.8150   11.4830 C   0  0  0  0  0  0  0  0  0  0  0  0
   -0.1690  -13.3900   10.5820 C   0  0  0  0  0  0  0  0  0  0  0  0
    0.4690  -14.6540   10.8030 C   0  0  0  0  0  0  0  0  0  0  0  0
    1.2980  -15.1550    9.7900 C   0  0  0  0  0  0  0  0  0  0  0  0
    1.5310  -14.4310    8.6250 C   0  0  0  0  0  0  0  0  0  0  0  0
    0.9270  -13.1900    8.4490 C   0  0  0  0  0  0  0  0  0  0  0  0
    0.0770  -12.6550    9.4010 C   0  0  0  0  0  0  0  0  0  0  0  0
   -0.4810  -11.4580    9.1430 N   0  0  0  0  0  0  0  0  0  0  0  0
    1.4600  -20.3970   13.7600 C   0  0  0  0  0  0  0  0  0  0  0  0
    0.3480  -21.3240   13.3240 C   0  0  0  0  0  0  0  0  0  0  0  0
    0.2390  -21.7250   11.9890 C   0  0  0  0  0  0  0  0  0  0  0  0
   -0.7800  -22.5930   11.6010 C   0  0  0  0  0  0  0  0  0  0  0  0
   -1.6900  -23.0700   12.5460 C   0  0  0  0  0  0  0  0  0  0  0  0
   -1.5910  -22.6890   13.8890 C   0  0  0  0  0  0  0  0  0  0  0  0
   -0.5700  -21.8150   14.2680 C   0  0  0  0  0  0  0  0  0  0  0  0
   -2.5500  -23.2140   14.7810 N   0  0  0  0  0  0  0  0  0  0  0  0
   -2.3950  -24.2760   15.6530 C   0  0  0  0  0  0  0  0  0  0  0  0
   -1.4160  -25.0030   15.7630 O   0  0  0  0  0  0  0  0  0  0  0  0
   -3.5850  -24.5620   16.5040 C   0  0  0  0  0  0  0  0  0  0  0  0
   -4.4600  -23.5120   16.8060 C   0  0  0  0  0  0  0  0  0  0  0  0
   -5.5840  -23.7440   17.6000 C   0  0  0  0  0  0  0  0  0  0  0  0
   -5.8420  -25.0260   18.0860 C   0  0  0  0  0  0  0  0  0  0  0  0
   -4.9840  -26.0800   17.7720 C   0  0  0  0  0  0  0  0  0  0  0  0
   -3.8580  -25.8530   16.9790 C   0  0  0  0  0  0  0  0  0  0  0  0
  1  5  1  0
  1 19  1  0
  2  7  1  0
  2  3  1  0
  4  5  1  0
  4  3  1  0
  6  7  1  0
  6  5  1  0
  8  9  1  0
  9 10  1  0
 10 11  2  0
 12 13  2  0
 12 11  1  0
 13  2  1  0
 14 13  1  0
 15 14  2  0
 16 15  1  0
 16 17  2  0
 17 12  1  0
 18 17  1  0
 18  9  2  0
 20 19  1  0
 20 25  2  0
 21 20  1  0
 22 21  2  0
 22 23  1  0
 23 24  2  0
 24 25  1  0
 24 26  1  0
 26 27  1  0
 27 28  2  0
 27 29  1  0
 29 30  2  0
 29 34  1  0
 30 31  1  0
 31 32  2  0
 33 32  1  0
 34 33  2  0
M  END
$$$$
