lig_293
     RDKit          3D

 33 37  0  0  1  0  0  0  0  0999 V2000
    1.7600  -18.3540   12.4690 C   0  0  0  0  0  0  0  0  0  0  0  0
    0.4900  -15.0810   11.2330 N   0  0  0  0  0  0  0  0  0  0  0  0
   -0.1710  -16.3800   10.9920 C   0  0  0  0  0  0  0  0  0  0  0  0
   -0.3500  -17.1420   12.3280 C   0  0  0  0  0  0  0  0  0  0  0  0
    0.8980  -17.3470   13.1070 N   0  0  0  0  0  0  0  0  0  0  0  0
    1.5590  -16.0290   13.2650 C   0  0  0  0  0  0  0  0  0  0  0  0
    1.7680  -15.2240   11.9580 C   0  0  0  0  0  0  0  0  0  0  0  0
    1.2700  -12.1310    6.3470 C   0  0  0  0  0  0  0  0  0  0  0  0
    1.0340  -12.8500    7.6300 C   0  0  0  0  0  0  0  0  0  0  0  0
    1.5890  -14.0930    7.8940 C   0  0  0  0  0  0  0  0  0  0  0  0
    1.4200  -14.8110    9.0320 N   0  0  0  0  0  0  0  0  0  0  0  0
    0.6540  -14.3300   10.0540 C   0  0  0  0  0  0  0  0  0  0  0  0
    0.0270  -13.0780    9.8640 C   0  0  0  0  0  0  0  0  0  0  0  0
   -0.8670  -12.2620   10.6180 C   0  0  0  0  0  0  0  0  0  0  0  0
   -1.1140  -11.1440    9.8600 C   0  0  0  0  0  0  0  0  0  0  0  0
   -0.4440  -11.2120    8.6820 O   0  0  0  0  0  0  0  0  0  0  0  0
    0.2410  -12.3930    8.6750 C   0  0  0  0  0  0  0  0  0  0  0  0
    1.0070  -19.6010   11.9720 C   0  0  0  0  0  0  0  0  0  0  0  0
    1.1460  -20.8590   12.8620 C   0  0  1  0  0  0  0  0  0  0  0  0
    0.5670  -20.6870   14.2760 C   0  0  0  0  0  0  0  0  0  0  0  0
   -0.9600  -20.6140   14.2870 C   0  0  0  0  0  0  0  0  0  0  0  0
   -1.6060  -21.8260   13.5980 C   0  0  1  0  0  0  0  0  0  0  0  0
   -1.0250  -22.0520   12.1980 C   0  0  0  0  0  0  0  0  0  0  0  0
    0.5050  -22.0830   12.1810 C   0  0  0  0  0  0  0  0  0  0  0  0
   -1.4630  -23.0270   14.4150 N   0  0  0  0  0  0  0  0  0  0  0  0
   -2.5330  -23.8560   14.6830 C   0  0  0  0  0  0  0  0  0  0  0  0
   -3.6350  -23.7140   14.1630 O   0  0  0  0  0  0  0  0  0  0  0  0
   -2.2130  -24.9680   15.6830 C   0  0  0  0  0  0  0  0  0  0  0  0
   -3.4750  -25.4670   16.3980 C   0  0  0  0  0  0  0  0  0  0  0  0
   -3.9350  -24.5100   17.4910 C   0  0  0  0  0  0  0  0  0  0  0  0
   -2.8670  -24.2310   18.3980 O   0  0  0  0  0  0  0  0  0  0  0  0
   -1.7770  -23.5840   17.7480 C   0  0  0  0  0  0  0  0  0  0  0  0
   -1.1640  -24.5090   16.7030 C   0  0  0  0  0  0  0  0  0  0  0  0
  1  5  1  0
  2  7  1  0
  3  2  1  0
  3  4  1  0
  4  5  1  0
  5  6  1  0
  7  6  1  0
  8  9  1  0
  9 10  1  0
  9 17  2  0
 10 11  2  0
 11 12  1  0
 12  2  1  0
 13 12  2  0
 13 14  1  0
 15 14  2  0
 16 15  1  0
 17 16  1  0
 17 13  1  0
 18  1  1  0
 19 18  1  6
 19 20  1  0
 20 21  1  0
 22 21  1  0
 22 25  1  1
 23 22  1  0
 24 23  1  0
 24 19  1  0
 25 26  1  0
 26 28  1  0
 27 26  2  0
 28 29  1  0
 28 33  1  0
 29 30  1  0
 30 31  1  0
 32 31  1  0
 33 32  1  0
M  END
$$$$
