lig_025
     RDKit          3D

 31 34  0  0  0  0  0  0  0  0999 V2000
  126.8480  137.7430  106.4600 N   0  0  0  0  0  0  0  0  0  0  0  0
  126.4460  137.2020  105.1380 C   0  0  0  0  0  0  0  0  0  0  0  0
  126.6500  138.2170  103.9860 C   0  0  0  0  0  0  0  0  0  0  0  0
  125.9090  139.4640  104.2760 N   0  0  0  0  0  0  0  0  0  0  0  0
  126.3210  140.0500  105.5700 C   0  0  0  0  0  0  0  0  0  0  0  0
  126.1160  139.0130  106.7000 C   0  0  0  0  0  0  0  0  0  0  0  0
  125.9630  140.3940  103.2080 C   0  0  0  0  0  0  0  0  0  0  0  0
  127.0680  141.2380  103.0220 C   0  0  0  0  0  0  0  0  0  0  0  0
  127.0980  142.1420  101.9650 C   0  0  0  0  0  0  0  0  0  0  0  0
  126.0200  142.2110  101.0840 C   0  0  0  0  0  0  0  0  0  0  0  0
  124.9060  141.3980  101.2250 C   0  0  0  0  0  0  0  0  0  0  0  0
  123.9050  141.5240  100.3340 N   0  0  0  0  0  0  0  0  0  0  0  0
  122.8130  140.7350  100.4650 C   0  0  0  0  0  0  0  0  0  0  0  0
  121.7200  140.9030   99.4540 C   0  0  0  0  0  0  0  0  0  0  0  0
  122.6840  139.8030  101.4820 C   0  0  0  0  0  0  0  0  0  0  0  0
  123.7200  139.6770  102.4010 C   0  0  0  0  0  0  0  0  0  0  0  0
  124.8720  140.4790  102.2970 C   0  0  0  0  0  0  0  0  0  0  0  0
  126.5690  136.7930  107.5550 C   0  0  0  0  0  0  0  0  0  0  0  0
  125.7180  137.3980  108.6830 C   0  0  0  0  0  0  0  0  0  0  0  0
  126.3700  134.5700  111.1670 C   0  0  0  0  0  0  0  0  0  0  0  0
  126.3000  135.2640  112.3800 C   0  0  0  0  0  0  0  0  0  0  0  0
  126.0420  136.6360  112.4010 C   0  0  0  0  0  0  0  0  0  0  0  0
  125.8500  137.3280  111.2070 C   0  0  0  0  0  0  0  0  0  0  0  0
  125.9080  136.6500  109.9840 C   0  0  0  0  0  0  0  0  0  0  0  0
  126.1740  135.2700  109.9740 C   0  0  0  0  0  0  0  0  0  0  0  0
  125.7930  132.1460  110.9910 C   0  0  0  0  0  0  0  0  0  0  0  0
  124.6170  132.1840  110.6650 O   0  0  0  0  0  0  0  0  0  0  0  0
  126.6380  133.1920  111.2300 N   0  0  0  0  0  0  0  0  0  0  0  0
  126.4940  130.9950  111.1780 O   0  0  0  0  0  0  0  0  0  0  0  0
  127.3680  129.3830  112.7090 C   0  0  0  0  0  0  0  0  0  0  0  0
  126.2250  130.3380  112.4230 C   0  0  0  0  0  0  0  0  0  0  0  0
  1  6  1  0
  1 18  1  0
  2  1  1  0
  3  4  1  0
  3  2  1  0
  4  5  1  0
  5  6  1  0
  7  4  1  0
  8  7  1  0
  9  8  2  0
 10 11  2  0
 10  9  1  0
 11 17  1  0
 12 13  2  0
 12 11  1  0
 13 15  1  0
 14 13  1  0
 15 16  2  0
 17 16  1  0
 17  7  2  0
 18 19  1  0
 19 24  1  0
 20 28  1  0
 20 21  2  0
 21 22  1  0
 23 22  2  0
 24 23  1  0
 25 24  2  0
 25 20  1  0
 26 29  1  0
 26 28  1  0
 27 26  2  0
 29 31  1  0
 31 30  1  0
M  END
$$$$
