lig_156
     RDKit          3D

 30 33  0  0  1  0  0  0  0  0999 V2000
    1.7520  -18.6120   13.2610 C   0  0  0  0  0  0  0  0  0  0  0  0
    1.3690  -17.4770   12.4110 N   0  0  0  0  0  0  0  0  0  0  0  0
   -0.0880  -17.2600   12.4630 C   0  0  0  0  0  0  0  0  0  0  0  0
   -0.5260  -15.8330   12.1100 C   0  0  0  0  0  0  0  0  0  0  0  0
    0.4210  -15.1970   11.0880 C   0  0  0  0  0  0  0  0  0  0  0  0
    1.8820  -15.2280   11.5790 C   0  0  0  0  0  0  0  0  0  0  0  0
    2.1100  -16.2510   12.6990 C   0  0  0  0  0  0  0  0  0  0  0  0
   -0.0420  -13.8260   10.6300 C   0  0  0  0  0  0  0  0  0  0  0  0
   -0.8780  -13.0770   11.4840 C   0  0  0  0  0  0  0  0  0  0  0  0
   -1.3510  -11.8020   11.1280 C   0  0  0  0  0  0  0  0  0  0  0  0
   -0.9940  -11.2350    9.9090 C   0  0  0  0  0  0  0  0  0  0  0  0
   -0.1650  -11.9630    9.0840 C   0  0  0  0  0  0  0  0  0  0  0  0
    0.3080  -13.2320    9.4190 C   0  0  0  0  0  0  0  0  0  0  0  0
    1.0900  -13.7390    8.2620 C   0  0  0  0  0  0  0  0  0  0  0  0
    1.3140  -12.4280    7.5120 C   0  0  0  0  0  0  0  0  0  0  0  0
    0.2550  -11.5130    7.8560 O   0  0  0  0  0  0  0  0  0  0  0  0
    0.6640  -19.6920   13.4130 C   0  0  0  0  0  0  0  0  0  0  0  0
   -1.0110  -22.6930   14.0700 C   0  0  1  0  0  0  0  0  0  0  0  0
    0.3450  -22.5190   14.7720 C   0  0  0  0  0  0  0  0  0  0  0  0
    1.4630  -22.0620   13.8340 C   0  0  0  0  0  0  0  0  0  0  0  0
    0.9980  -21.0580   12.7680 C   0  0  1  0  0  0  0  0  0  0  0  0
   -0.1670  -21.6300   11.9340 C   0  0  0  0  0  0  0  0  0  0  0  0
   -0.8450  -22.8530   12.5580 C   0  0  0  0  0  0  0  0  0  0  0  0
   -2.7320  -23.6360   15.5810 C   0  0  0  0  0  0  0  0  0  0  0  0
   -2.9870  -22.5510   16.0930 O   0  0  0  0  0  0  0  0  0  0  0  0
   -1.7410  -23.8180   14.6380 N   0  0  0  0  0  0  0  0  0  0  0  0
   -3.4420  -24.9310   15.9410 C   0  0  0  0  0  0  0  0  0  0  0  0
   -5.1210  -25.7820   17.6380 C   0  0  0  0  0  0  0  0  0  0  0  0
   -3.7940  -25.0460   17.4320 C   0  0  0  0  0  0  0  0  0  0  0  0
   -2.6780  -25.7780   18.1800 C   0  0  0  0  0  0  0  0  0  0  0  0
  1 17  1  0
  2  3  1  0
  2  7  1  0
  2  1  1  0
  4  3  1  0
  5  8  1  0
  5  6  1  0
  5  4  1  0
  6  7  1  0
  8  9  2  0
 10  9  1  0
 11 10  2  0
 12 13  2  0
 12 11  1  0
 13  8  1  0
 14 13  1  0
 15 16  1  0
 15 14  1  0
 16 12  1  0
 18 26  1  1
 18 19  1  0
 20 19  1  0
 21 17  1  1
 21 20  1  0
 22 23  1  0
 22 21  1  0
 23 18  1  0
 24 27  1  0
 24 25  2  0
 26 24  1  0
 27 29  1  0
 29 28  1  0
 29 30  1  0
M  END
$$$$
