lig_272
     RDKit          3D

 24 25  0  0  0  0  0  0  0  0999 V2000
    0.6930  -19.1010   11.5660 N   0  0  0  0  0  0  0  0  0  0  0  0
    0.7030  -20.5530   11.8960 C   0  0  0  0  0  0  0  0  0  0  0  0
    1.2260  -20.9010   13.3250 C   0  0  0  0  0  0  0  0  0  0  0  0
    0.6120  -22.2480   13.5590 C   0  0  0  0  0  0  0  0  0  0  0  0
    0.9720  -23.2020   14.4940 C   0  0  0  0  0  0  0  0  0  0  0  0
    0.2270  -24.3820   14.5550 C   0  0  0  0  0  0  0  0  0  0  0  0
   -0.8650  -24.5850   13.6960 C   0  0  0  0  0  0  0  0  0  0  0  0
   -1.2280  -23.6090   12.7650 C   0  0  0  0  0  0  0  0  0  0  0  0
   -0.4740  -22.4490   12.7040 C   0  0  0  0  0  0  0  0  0  0  0  0
   -0.6880  -21.2480   11.8360 C   0  0  0  0  0  0  0  0  0  0  0  0
    0.8980  -18.2700   12.7750 C   0  0  0  0  0  0  0  0  0  0  0  0
    2.1930  -17.4460   12.7250 C   0  0  0  0  0  0  0  0  0  0  0  0
    1.9450  -15.9340   12.6770 C   0  0  0  0  0  0  0  0  0  0  0  0
    0.5830  -15.5830   12.0800 C   0  0  0  0  0  0  0  0  0  0  0  0
   -0.1140  -13.6230   10.7410 C   0  0  0  0  0  0  0  0  0  0  0  0
   -0.9900  -13.2940   11.5310 O   0  0  0  0  0  0  0  0  0  0  0  0
    0.6810  -14.7380   10.9070 N   0  0  0  0  0  0  0  0  0  0  0  0
    0.1990  -12.8680    9.4600 C   0  0  0  0  0  0  0  0  0  0  0  0
    0.0750  -13.7240    8.2010 C   0  0  0  0  0  0  0  0  0  0  0  0
    1.2840  -12.2220    6.5770 C   0  0  0  0  0  0  0  0  0  0  0  0
    1.2850  -13.5730    7.2740 C   0  0  0  0  0  0  0  0  0  0  0  0
   -0.5590  -18.7210   10.8780 C   0  0  0  0  0  0  0  0  0  0  0  0
   -0.3130  -18.2080    9.4500 C   0  0  0  0  0  0  0  0  0  0  0  0
   -1.2890  -18.8350    8.4640 C   0  0  0  0  0  0  0  0  0  0  0  0
  1  2  1  0
  1 11  1  0
  2  3  1  0
  3  4  1  0
  4  5  2  0
  5  6  1  0
  7  6  2  0
  8  7  1  0
  9  8  2  0
  9  4  1  0
 10  2  1  0
 10  9  1  0
 12 11  1  0
 13 12  1  0
 14 13  1  0
 15 17  1  0
 15 16  2  0
 17 14  1  0
 18 15  1  0
 19 18  1  0
 20 21  1  0
 21 19  1  0
 22  1  1  0
 23 22  1  0
 24 23  1  0
M  END
$$$$
