lig_297
     RDKit          3D

 31 34  0  0  1  0  0  0  0  0999 V2000
   -3.5480  -22.1180   18.1270 C   0  0  0  0  0  0  0  0  0  0  0  0
   -4.5840  -20.9650   18.1810 C   0  0  0  0  0  0  0  0  0  0  0  0
   -4.1460  -19.6280   18.0640 C   0  0  0  0  0  0  0  0  0  0  0  0
   -5.0480  -18.5610   18.0800 C   0  0  0  0  0  0  0  0  0  0  0  0
   -6.4120  -18.8060   18.1970 C   0  0  0  0  0  0  0  0  0  0  0  0
   -6.8730  -20.1150   18.2850 C   0  0  0  0  0  0  0  0  0  0  0  0
   -5.9700  -21.1850   18.2680 C   0  0  0  0  0  0  0  0  0  0  0  0
   -2.2570  -21.5390   18.8370 C   0  0  0  0  0  0  0  0  0  0  0  0
   -1.0700  -21.3310   18.1010 C   0  0  0  0  0  0  0  0  0  0  0  0
    0.0700  -20.7820   18.6960 C   0  0  0  0  0  0  0  0  0  0  0  0
    0.0490  -20.4120   20.0360 C   0  0  0  0  0  0  0  0  0  0  0  0
   -1.1160  -20.5780   20.7770 C   0  0  0  0  0  0  0  0  0  0  0  0
   -2.2580  -21.1250   20.1830 C   0  0  0  0  0  0  0  0  0  0  0  0
   -4.1520  -25.8880   19.0400 C   0  0  0  0  0  0  0  0  0  0  0  0
   -3.4580  -24.7140   18.5290 N   0  0  0  0  0  0  0  0  0  0  0  0
   -2.1070  -24.9750   18.0520 C   0  0  0  0  0  0  0  0  0  0  0  0
   -4.0130  -23.4690   18.8220 C   0  0  0  0  0  0  0  0  0  0  0  0
   -4.8930  -23.4190   19.6980 O   0  0  0  0  0  0  0  0  0  0  0  0
   -3.0990  -22.5750   16.6850 C   0  0  0  0  0  0  0  0  0  0  0  0
   -4.2050  -23.1070   15.7650 C   0  0  0  0  0  0  0  0  0  0  0  0
   -3.6320  -24.0540   14.8030 N   0  0  0  0  0  0  0  0  0  0  0  0
   -2.8470  -23.3730   13.7640 C   0  0  2  0  0  0  0  0  0  0  0  0
   -2.2450  -24.1930   12.6640 C   0  0  0  0  0  0  0  0  0  0  0  0
   -1.3470  -23.5800   13.7120 C   0  0  1  0  0  0  0  0  0  0  0  0
   -0.4420  -22.4220   13.3640 C   0  0  0  0  0  0  0  0  0  0  0  0
   -0.4070  -21.8930   12.0610 C   0  0  0  0  0  0  0  0  0  0  0  0
    0.4180  -20.8130   11.7360 C   0  0  0  0  0  0  0  0  0  0  0  0
    1.2180  -20.2360   12.7170 C   0  0  0  0  0  0  0  0  0  0  0  0
    2.2340  -18.9060   12.3210 Cl  0  0  0  0  0  0  0  0  0  0  0  0
    1.1980  -20.7310   14.0170 C   0  0  0  0  0  0  0  0  0  0  0  0
    0.3700  -21.8130   14.3340 C   0  0  0  0  0  0  0  0  0  0  0  0
  1  2  1  0
  1 17  1  0
  1  8  1  0
  2  7  1  0
  3  4  1  0
  3  2  2  0
  4  5  2  0
  5  6  1  0
  7  6  2  0
  8 13  1  0
  9 10  1  0
  9  8  2  0
 10 11  2  0
 11 12  1  0
 13 12  2  0
 15 17  1  0
 15 14  1  0
 16 15  1  0
 17 18  2  0
 19  1  1  0
 20 19  1  0
 21 20  1  0
 22 21  1  1
 23 24  1  0
 23 22  1  0
 24 25  1  6
 24 22  1  0
 25 31  2  0
 26 25  1  0
 27 26  2  0
 27 28  1  0
 28 30  2  0
 29 28  1  0
 30 31  1  0
M  END
$$$$
