lig_019
     RDKit          3D

 32 36  0  0  0  0  0  0  0  0999 V2000
  124.9400  136.7890  108.2500 N   0  0  0  0  0  0  0  0  0  0  0  0
  123.6870  136.0220  108.3290 C   0  0  0  0  0  0  0  0  0  0  0  0
  123.3810  135.6430  109.7980 C   0  0  0  0  0  0  0  0  0  0  0  0
  124.4150  134.8020  110.4460 N   0  0  0  0  0  0  0  0  0  0  0  0
  125.7430  135.0390  109.8390 C   0  0  0  0  0  0  0  0  0  0  0  0
  125.9730  136.4490  109.2450 C   0  0  0  0  0  0  0  0  0  0  0  0
  125.8340  139.3300  104.9350 C   0  0  0  0  0  0  0  0  0  0  0  0
  126.5840  139.3650  106.1170 C   0  0  0  0  0  0  0  0  0  0  0  0
  126.2870  138.5230  107.2030 C   0  0  0  0  0  0  0  0  0  0  0  0
  125.2300  137.6060  107.1710 C   0  0  0  0  0  0  0  0  0  0  0  0
  124.4800  137.5840  105.9900 C   0  0  0  0  0  0  0  0  0  0  0  0
  124.7730  138.4190  104.8970 C   0  0  0  0  0  0  0  0  0  0  0  0
  124.7940  142.0160  104.5890 O   0  0  0  0  0  0  0  0  0  0  0  0
  125.5760  141.5130  103.7830 C   0  0  0  0  0  0  0  0  0  0  0  0
  125.9460  142.3570  102.6090 C   0  0  0  0  0  0  0  0  0  0  0  0
  126.7430  141.8890  101.6430 C   0  0  0  0  0  0  0  0  0  0  0  0
  127.2720  140.5610  101.7370 C   0  0  0  0  0  0  0  0  0  0  0  0
  126.9680  139.7870  102.7850 C   0  0  0  0  0  0  0  0  0  0  0  0
  126.1360  140.2120  103.8260 N   0  0  0  0  0  0  0  0  0  0  0  0
  124.4420  134.9900  111.9030 C   0  0  0  0  0  0  0  0  0  0  0  0
  123.9160  136.3530  112.3720 C   0  0  0  0  0  0  0  0  0  0  0  0
  125.0380  137.3550  112.6600 C   0  0  0  0  0  0  0  0  0  0  0  0
  124.5230  138.7570  112.7630 C   0  0  0  0  0  0  0  0  0  0  0  0
  124.2930  139.4600  113.9290 C   0  0  0  0  0  0  0  0  0  0  0  0
  123.8260  140.7040  113.6010 N   0  0  0  0  0  0  0  0  0  0  0  0
  123.7410  140.8340  112.2340 C   0  0  0  0  0  0  0  0  0  0  0  0
  123.3180  141.9210  111.4580 C   0  0  0  0  0  0  0  0  0  0  0  0
  123.3380  141.7670  110.0690 C   0  0  0  0  0  0  0  0  0  0  0  0
  123.7650  140.5760  109.4990 C   0  0  0  0  0  0  0  0  0  0  0  0
  123.7730  140.4580  108.1630 F   0  0  0  0  0  0  0  0  0  0  0  0
  124.1850  139.4980  110.2770 C   0  0  0  0  0  0  0  0  0  0  0  0
  124.1740  139.6280  111.6800 C   0  0  0  0  0  0  0  0  0  0  0  0
  1  2  1  0
  1  6  1  0
  2  3  1  0
  3  4  1  0
  4 20  1  0
  5  4  1  0
  6  5  1  0
  7  8  1  0
  8  9  2  0
 10  9  1  0
 10  1  1  0
 11 10  2  0
 12  7  2  0
 12 11  1  0
 14 19  1  0
 14 13  2  0
 15 14  1  0
 16 17  1  0
 16 15  2  0
 17 18  2  0
 18 19  1  0
 19  7  1  0
 20 21  1  0
 21 22  1  0
 22 23  1  0
 23 24  2  0
 25 24  1  0
 26 25  1  0
 27 26  1  0
 28 27  2  0
 29 28  1  0
 29 31  2  0
 30 29  1  0
 31 32  1  0
 32 26  2  0
 32 23  1  0
M  END
$$$$
