lig_033
     RDKit          3D

 30 34  0  0  0  0  0  0  0  0999 V2000
  122.4310  140.4120  109.8560 C   0  0  0  0  0  0  0  0  0  0  0  0
  123.3520  140.2870  108.7140 N   0  0  0  0  0  0  0  0  0  0  0  0
  123.9440  141.6130  108.3980 C   0  0  0  0  0  0  0  0  0  0  0  0
  124.8960  141.5750  107.1790 C   0  0  0  0  0  0  0  0  0  0  0  0
  124.1740  141.0500  106.0000 N   0  0  0  0  0  0  0  0  0  0  0  0
  123.5990  139.7150  106.2620 C   0  0  0  0  0  0  0  0  0  0  0  0
  122.6690  139.7730  107.4990 C   0  0  0  0  0  0  0  0  0  0  0  0
  124.9410  141.0960  104.8190 C   0  0  0  0  0  0  0  0  0  0  0  0
  126.2750  140.6410  104.7730 C   0  0  0  0  0  0  0  0  0  0  0  0
  127.0240  140.6880  103.6040 C   0  0  0  0  0  0  0  0  0  0  0  0
  126.4690  141.1940  102.4310 C   0  0  0  0  0  0  0  0  0  0  0  0
  125.1400  141.6540  102.4560 C   0  0  0  0  0  0  0  0  0  0  0  0
  124.2560  142.3160  101.1300 S   0  0  0  0  0  0  0  0  0  0  0  0
  122.8610  142.5520  102.0790 C   0  0  0  0  0  0  0  0  0  0  0  0
  123.0500  142.1410  103.3760 C   0  0  0  0  0  0  0  0  0  0  0  0
  124.3690  141.6150  103.6210 C   0  0  0  0  0  0  0  0  0  0  0  0
  122.8540  139.5470  111.0510 C   0  0  0  0  0  0  0  0  0  0  0  0
  122.5880  138.0660  110.7770 C   0  0  0  0  0  0  0  0  0  0  0  0
  123.8830  137.2570  110.7990 C   0  0  0  0  0  0  0  0  0  0  0  0
  123.2280  135.2790  108.6330 O   0  0  0  0  0  0  0  0  0  0  0  0
  124.1010  136.1270  108.5360 C   0  0  0  0  0  0  0  0  0  0  0  0
  124.4400  137.1150  109.4750 N   0  0  0  0  0  0  0  0  0  0  0  0
  125.5330  137.8460  109.0450 N   0  0  0  0  0  0  0  0  0  0  0  0
  125.7980  137.3430  107.8780 C   0  0  0  0  0  0  0  0  0  0  0  0
  126.8570  137.7210  106.9180 C   0  0  0  0  0  0  0  0  0  0  0  0
  127.6780  138.7300  107.2540 F   0  0  0  0  0  0  0  0  0  0  0  0
  126.9630  137.0540  105.7590 C   0  0  0  0  0  0  0  0  0  0  0  0
  126.0500  135.9670  105.4460 C   0  0  0  0  0  0  0  0  0  0  0  0
  125.0900  135.6270  106.3220 C   0  0  0  0  0  0  0  0  0  0  0  0
  124.9840  136.3170  107.5000 N   0  0  0  0  0  0  0  0  0  0  0  0
  1 17  1  0
  2  1  1  0
  3  2  1  0
  4  3  1  0
  5  6  1  0
  5  4  1  0
  6  7  1  0
  7  2  1  0
  8  5  1  0
  9  8  1  0
 10  9  2  0
 11 12  2  0
 11 10  1  0
 12 16  1  0
 13 14  1  0
 13 12  1  0
 14 15  2  0
 15 16  1  0
 16  8  2  0
 18 19  1  0
 18 17  1  0
 21 20  2  0
 21 22  1  0
 22 19  1  0
 23 22  1  0
 24 23  2  0
 25 26  1  0
 25 24  1  0
 27 25  2  0
 28 27  1  0
 28 29  2  0
 29 30  1  0
 30 24  1  0
 30 21  1  0
M  END
$$$$
