lig_318
     RDKit          3D

 23 26  0  0  0  0  0  0  0  0999 V2000
   -2.4200    9.5620   16.0480 C   0  0  0  0  0  0  0  0  0  0  0  0
   -3.7460    9.5330   15.6620 C   0  0  0  0  0  0  0  0  0  0  0  0
   -4.4710    8.3590   15.8590 C   0  0  0  0  0  0  0  0  0  0  0  0
   -3.8720    7.2270   16.4370 C   0  0  0  0  0  0  0  0  0  0  0  0
   -2.5230    7.3490   16.7950 C   0  0  0  0  0  0  0  0  0  0  0  0
   -1.8130    8.5010   16.6100 N   0  0  0  0  0  0  0  0  0  0  0  0
   -4.6660    6.0070   16.6060 C   0  0  0  0  0  0  0  0  0  0  0  0
   -5.5160    5.8320   17.6830 C   0  0  0  0  0  0  0  0  0  0  0  0
   -6.2140    4.6470   17.7190 C   0  0  0  0  0  0  0  0  0  0  0  0
   -6.1060    3.6940   16.7780 N   0  0  0  0  0  0  0  0  0  0  0  0
   -5.2660    3.9660   15.7690 C   0  0  0  0  0  0  0  0  0  0  0  0
   -4.5350    5.0810   15.6330 N   0  0  0  0  0  0  0  0  0  0  0  0
   -1.7380    6.2970   17.4520 C   0  0  0  0  0  0  0  0  0  0  0  0
   -1.9820    5.0080   17.8900 C   0  0  0  0  0  0  0  0  0  0  0  0
   -0.7770    4.5240   18.4570 C   0  0  0  0  0  0  0  0  0  0  0  0
    0.1330    5.5460   18.3420 C   0  0  0  0  0  0  0  0  0  0  0  0
   -0.4350    6.6210   17.7430 O   0  0  0  0  0  0  0  0  0  0  0  0
   -2.5960   12.2820   17.2120 O   0  0  0  0  0  0  0  0  0  0  0  0
   -1.7050   11.9100   16.4610 C   0  0  0  0  0  0  0  0  0  0  0  0
   -1.5780   10.6630   15.9060 N   0  0  0  0  0  0  0  0  0  0  0  0
   -0.6360   12.8920   16.1010 C   0  0  0  0  0  0  0  0  0  0  0  0
    0.5920   12.5060   15.3090 C   0  0  0  0  0  0  0  0  0  0  0  0
   -0.4410   13.4070   14.6940 C   0  0  0  0  0  0  0  0  0  0  0  0
  1  6  2  0
  2  3  2  0
  2  1  1  0
  3  4  1  0
  4  7  1  0
  4  5  2  0
  5 13  1  0
  6  5  1  0
  7  8  1  0
  8  9  2  0
 10  9  1  0
 11 10  2  0
 12 11  1  0
 12  7  2  0
 13 17  1  0
 13 14  2  0
 14 15  1  0
 16 15  2  0
 17 16  1  0
 19 18  2  0
 20  1  1  0
 20 19  1  0
 21 19  1  0
 22 21  1  0
 23 22  1  0
 23 21  1  0
M  END
$$$$
