lig_018
     RDKit          3D

 32 36  0  0  1  0  0  0  0  0999 V2000
  186.9950  172.9400  174.1480 C   0  0  1  0  0  0  0  0  0  0  0  0
  187.6570  171.5290  174.3160 C   0  0  0  0  0  0  0  0  0  0  0  0
  186.9640  170.3590  173.5950 C   0  0  0  0  0  0  0  0  0  0  0  0
  185.4490  170.4860  173.3560 C   0  0  2  0  0  0  0  0  0  0  0  0
  185.0800  171.8610  172.7410 C   0  0  0  0  0  0  0  0  0  0  0  0
  186.2250  172.8850  172.7830 C   0  0  0  0  0  0  0  0  0  0  0  0
  184.6500  170.2490  174.6620 C   0  0  0  0  0  0  0  0  0  0  0  0
  183.6300  169.2890  174.3100 N   0  0  0  0  0  0  0  0  0  0  0  0
  183.7740  168.8400  173.0100 C   0  0  0  0  0  0  0  0  0  0  0  0
  182.9890  168.1200  172.4130 O   0  0  0  0  0  0  0  0  0  0  0  0
  184.9670  169.3740  172.5040 N   0  0  0  0  0  0  0  0  0  0  0  0
  185.9780  173.3190  175.2700 C   0  0  0  0  0  0  0  0  0  0  0  0
  185.8990  172.6630  176.5140 C   0  0  0  0  0  0  0  0  0  0  0  0
  184.9610  173.0420  177.4840 C   0  0  0  0  0  0  0  0  0  0  0  0
  184.1000  174.1070  177.2490 C   0  0  0  0  0  0  0  0  0  0  0  0
  184.1860  174.8060  176.0520 C   0  0  0  0  0  0  0  0  0  0  0  0
  185.1180  174.4230  175.0830 C   0  0  0  0  0  0  0  0  0  0  0  0
  189.2330  173.7190  174.9160 C   0  0  0  0  0  0  0  0  0  0  0  0
  188.0310  174.0270  174.1340 N   0  0  0  0  0  0  0  0  0  0  0  0
  188.4130  174.5440  172.8210 C   0  0  0  0  0  0  0  0  0  0  0  0
  182.4340  169.0830  175.1030 C   0  0  0  0  0  0  0  0  0  0  0  0
  182.3350  167.6850  175.6460 C   0  0  0  0  0  0  0  0  0  0  0  0
  181.2580  167.2920  176.4450 C   0  0  0  0  0  0  0  0  0  0  0  0
  181.1830  165.9800  176.9030 C   0  0  0  0  0  0  0  0  0  0  0  0
  182.1870  165.0990  176.5380 C   0  0  0  0  0  0  0  0  0  0  0  0
  183.2380  165.4370  175.7600 N   0  0  0  0  0  0  0  0  0  0  0  0
  183.2890  166.7210  175.3360 C   0  0  0  0  0  0  0  0  0  0  0  0
  185.3040  169.2440  171.0910 C   0  0  0  0  0  0  0  0  0  0  0  0
  185.7270  167.8010  170.8230 C   0  0  0  0  0  0  0  0  0  0  0  0
  186.8480  167.1800  171.7000 C   0  0  0  0  0  0  0  0  0  0  0  0
  187.8620  167.6390  170.6360 C   0  0  0  0  0  0  0  0  0  0  0  0
  186.7000  167.6410  169.6240 C   0  0  0  0  0  0  0  0  0  0  0  0
  1 19  1  6
  1  2  1  0
  1 12  1  0
  3  2  1  0
  4  5  1  6
  4  3  1  0
  4  7  1  0
  5  6  1  0
  6  1  1  0
  8  7  1  0
  8 21  1  0
  9  8  1  0
 10  9  2  0
 11  9  1  0
 11  4  1  0
 12 13  2  0
 13 14  1  0
 15 14  2  0
 16 15  1  0
 17 12  1  0
 17 16  2  0
 19 18  1  0
 20 19  1  0
 21 22  1  0
 22 23  2  0
 23 24  1  0
 25 24  2  0
 26 25  1  0
 27 22  1  0
 27 26  2  0
 28 11  1  0
 29 28  1  0
 29 30  1  0
 31 30  1  0
 32 31  1  0
 32 29  1  0
M  END
$$$$
