lig_269
     RDKit          3D

 23 25  0  0  0  0  0  0  0  0999 V2000
   -2.3060    1.8530   17.7300 O   0  0  0  0  0  0  0  0  0  0  0  0
   -1.9300    2.9950   17.9220 C   0  0  0  0  0  0  0  0  0  0  0  0
   -0.9270    3.3550   18.7490 N   0  0  0  0  0  0  0  0  0  0  0  0
   -0.6030    4.6470   18.5670 C   0  0  0  0  0  0  0  0  0  0  0  0
    0.3290    5.2380   19.0790 O   0  0  0  0  0  0  0  0  0  0  0  0
   -1.5730    5.2150   17.6070 C   0  0  0  0  0  0  0  0  0  0  0  0
   -2.4340    4.2410   17.2600 C   0  0  0  0  0  0  0  0  0  0  0  0
   -1.5820    6.6110   17.1670 C   0  0  0  0  0  0  0  0  0  0  0  0
   -0.3960    7.3590   17.1660 C   0  0  0  0  0  0  0  0  0  0  0  0
   -0.3960    8.6920   16.7510 C   0  0  0  0  0  0  0  0  0  0  0  0
   -1.5810    9.2920   16.3270 C   0  0  0  0  0  0  0  0  0  0  0  0
   -2.7600    8.5510   16.3120 C   0  0  0  0  0  0  0  0  0  0  0  0
   -4.2230    9.2830   15.7830 Cl  0  0  0  0  0  0  0  0  0  0  0  0
   -2.7660    7.2170   16.7240 C   0  0  0  0  0  0  0  0  0  0  0  0
   -3.5070    4.2870   16.3940 N   0  0  0  0  0  0  0  0  0  0  0  0
   -4.8770    4.0670   16.6490 C   0  0  0  0  0  0  0  0  0  0  0  0
   -5.4190    2.8220   16.2770 C   0  0  0  0  0  0  0  0  0  0  0  0
   -6.7590    2.5110   16.5180 C   0  0  0  0  0  0  0  0  0  0  0  0
   -7.5750    3.4430   17.1440 C   0  0  0  0  0  0  0  0  0  0  0  0
   -7.0570    4.6780   17.5280 C   0  0  0  0  0  0  0  0  0  0  0  0
   -8.0720    5.8440   18.2980 Cl  0  0  0  0  0  0  0  0  0  0  0  0
   -5.7160    4.9880   17.2850 C   0  0  0  0  0  0  0  0  0  0  0  0
   -8.8790    3.0970   17.3590 O   0  0  0  0  0  0  0  0  0  0  0  0
  1  2  2  0
  2  3  1  0
  4  3  1  0
  4  5  2  0
  6  4  1  0
  7  6  2  0
  7  2  1  0
  8  6  1  0
  9  8  2  0
 10  9  1  0
 11 10  2  0
 12 11  1  0
 12 14  2  0
 13 12  1  0
 14  8  1  0
 15 16  1  0
 15  7  1  0
 16 22  2  0
 17 18  2  0
 17 16  1  0
 18 19  1  0
 19 23  1  0
 19 20  2  0
 20 21  1  0
 22 20  1  0
M  END
$$$$
