lig_032
     RDKit          3D

 29 32  0  0  1  0  0  0  0  0999 V2000
    9.3310    5.8490  -11.4370 C   0  0  0  0  0  0  0  0  0  0  0  0
    8.0130    6.2220  -10.9230 N   0  0  0  0  0  0  0  0  0  0  0  0
    6.9290    5.9260  -11.8560 C   0  0  0  0  0  0  0  0  0  0  0  0
    6.4860    3.9010  -13.4420 C   0  0  1  0  0  0  0  0  0  0  0  0
    5.4230    3.8550  -12.3650 C   0  0  0  0  0  0  0  0  0  0  0  0
    6.7680    4.4500  -12.0540 C   0  0  2  0  0  0  0  0  0  0  0  0
    8.4790    2.5760  -14.3680 C   0  0  0  0  0  0  0  0  0  0  0  0
    9.0560    1.3680  -14.7820 C   0  0  0  0  0  0  0  0  0  0  0  0
    8.3200    0.1830  -14.7370 C   0  0  0  0  0  0  0  0  0  0  0  0
    7.0110    0.2020  -14.2720 C   0  0  0  0  0  0  0  0  0  0  0  0
    6.1050   -1.2590  -14.2050 Cl  0  0  0  0  0  0  0  0  0  0  0  0
    6.4290    1.3990  -13.8590 C   0  0  0  0  0  0  0  0  0  0  0  0
    7.1400    2.6140  -13.9090 C   0  0  0  0  0  0  0  0  0  0  0  0
   10.2070    3.9570  -15.2730 C   0  0  0  0  0  0  0  0  0  0  0  0
    9.1340    3.7830  -14.3590 O   0  0  0  0  0  0  0  0  0  0  0  0
   10.1600    7.0980  -11.7520 C   0  0  0  0  0  0  0  0  0  0  0  0
   10.8090    7.7140  -10.5130 C   0  0  0  0  0  0  0  0  0  0  0  0
   10.4190    6.9540   -9.3680 O   0  0  0  0  0  0  0  0  0  0  0  0
   10.6620    7.5020   -8.1390 C   0  0  0  0  0  0  0  0  0  0  0  0
   10.7320    8.8980   -8.1290 C   0  0  0  0  0  0  0  0  0  0  0  0
   10.9690    9.5960   -6.9420 C   0  0  0  0  0  0  0  0  0  0  0  0
   11.1550    8.8950   -5.7500 C   0  0  0  0  0  0  0  0  0  0  0  0
   11.0890    7.4970   -5.7620 C   0  0  0  0  0  0  0  0  0  0  0  0
   10.8350    6.8000   -6.9450 C   0  0  0  0  0  0  0  0  0  0  0  0
   11.2550    6.7910   -4.5650 N   0  0  0  0  0  0  0  0  0  0  0  0
   11.6640    7.3580   -3.3880 C   0  0  0  0  0  0  0  0  0  0  0  0
   11.7340    6.6930   -2.3570 O   0  0  0  0  0  0  0  0  0  0  0  0
   12.1320    8.7930   -3.4570 C   0  0  0  0  0  0  0  0  0  0  0  0
   11.3120    9.6130   -4.4390 C   0  0  0  0  0  0  0  0  0  0  0  0
  1  2  1  0
  3  2  1  0
  4 13  1  1
  4  5  1  0
  4  6  1  0
  5  6  1  0
  6  3  1  6
  7 15  1  0
  7 13  2  0
  8  9  2  0
  8  7  1  0
  9 10  1  0
 10 11  1  0
 10 12  2  0
 13 12  1  0
 14 15  1  0
 16  1  1  0
 16 17  1  0
 17 18  1  0
 18 19  1  0
 19 20  1  0
 19 24  2  0
 20 21  2  0
 21 22  1  0
 22 29  1  0
 23 22  2  0
 23 25  1  0
 24 23  1  0
 25 26  1  0
 26 27  2  0
 28 26  1  0
 29 28  1  0
M  END
$$$$
