lig_309
     RDKit          3D

 21 23  0  0  0  0  0  0  0  0999 V2000
    0.6740  -15.8270   11.5710 N   0  0  0  0  0  0  0  0  0  0  0  0
   -0.4490  -16.7970   11.5300 C   0  0  0  0  0  0  0  0  0  0  0  0
    0.0840  -18.2340   11.7390 C   0  0  0  0  0  0  0  0  0  0  0  0
    0.8740  -18.3940   12.9830 N   0  0  0  0  0  0  0  0  0  0  0  0
    1.9660  -17.3910   12.9910 C   0  0  0  0  0  0  0  0  0  0  0  0
    1.4450  -15.9450   12.8240 C   0  0  0  0  0  0  0  0  0  0  0  0
    0.8360  -13.9620    9.9780 C   0  0  0  0  0  0  0  0  0  0  0  0
    0.3960  -12.7240    9.4930 C   0  0  0  0  0  0  0  0  0  0  0  0
   -0.5720  -12.0070   10.1860 C   0  0  0  0  0  0  0  0  0  0  0  0
   -1.1050  -12.5330   11.3590 C   0  0  0  0  0  0  0  0  0  0  0  0
   -0.6840  -13.7840   11.8280 C   0  0  0  0  0  0  0  0  0  0  0  0
    0.2810  -14.5430   11.1430 C   0  0  0  0  0  0  0  0  0  0  0  0
    1.8200  -14.5640    9.2260 O   0  0  0  0  0  0  0  0  0  0  0  0
    0.8310  -15.6480    7.3450 C   0  0  0  0  0  0  0  0  0  0  0  0
    1.5720  -14.4100    7.8230 C   0  0  0  0  0  0  0  0  0  0  0  0
    1.3870  -19.7690   13.0790 C   0  0  0  0  0  0  0  0  0  0  0  0
    0.3020  -20.8070   12.9670 C   0  0  0  0  0  0  0  0  0  0  0  0
    0.1390  -21.7710   11.9910 C   0  0  0  0  0  0  0  0  0  0  0  0
   -1.0170  -22.5760   12.2080 C   0  0  0  0  0  0  0  0  0  0  0  0
   -1.7020  -22.1970   13.3400 C   0  0  0  0  0  0  0  0  0  0  0  0
   -0.9570  -20.8760   14.1300 S   0  0  0  0  0  0  0  0  0  0  0  0
  1  6  1  0
  2  1  1  0
  2  3  1  0
  3  4  1  0
  4  5  1  0
  4 16  1  0
  6  5  1  0
  7 12  1  0
  8  7  2  0
  8  9  1  0
  9 10  2  0
 10 11  1  0
 12  1  1  0
 12 11  2  0
 13  7  1  0
 14 15  1  0
 15 13  1  0
 17 16  1  0
 17 21  1  0
 18 19  1  0
 18 17  2  0
 19 20  2  0
 20 21  1  0
M  END
$$$$
