lig_457
     RDKit          3D

 21 24  0  0  0  0  0  0  0  0999 V2000
   -1.9320    5.5530   17.5160 C   0  0  0  0  0  0  0  0  0  0  0  0
   -1.0490    4.7150   18.2160 C   0  0  0  0  0  0  0  0  0  0  0  0
    0.2270    5.1550   18.5800 C   0  0  0  0  0  0  0  0  0  0  0  0
    0.6620    6.4470   18.2720 C   0  0  0  0  0  0  0  0  0  0  0  0
   -0.2370    7.2690   17.5920 C   0  0  0  0  0  0  0  0  0  0  0  0
   -0.1440    8.5650   17.1570 N   0  0  0  0  0  0  0  0  0  0  0  0
   -1.3230    8.9170   16.5470 C   0  0  0  0  0  0  0  0  0  0  0  0
   -2.1660    7.9010   16.5640 N   0  0  0  0  0  0  0  0  0  0  0  0
   -1.5150    6.8660   17.2090 C   0  0  0  0  0  0  0  0  0  0  0  0
   -1.5370   10.2410   15.9850 C   0  0  0  0  0  0  0  0  0  0  0  0
   -1.4140   10.4950   14.6310 C   0  0  0  0  0  0  0  0  0  0  0  0
   -1.6090   11.7270   14.1010 N   0  0  0  0  0  0  0  0  0  0  0  0
   -1.9310   12.7040   14.9700 C   0  0  0  0  0  0  0  0  0  0  0  0
   -2.1470   13.9940   14.4990 C   0  0  0  0  0  0  0  0  0  0  0  0
   -2.4830   15.0370   15.3630 C   0  0  0  0  0  0  0  0  0  0  0  0
   -2.6070   14.7870   16.7230 C   0  0  0  0  0  0  0  0  0  0  0  0
   -2.3930   13.4950   17.2090 C   0  0  0  0  0  0  0  0  0  0  0  0
   -2.0580   12.4480   16.3600 C   0  0  0  0  0  0  0  0  0  0  0  0
   -1.8610   11.2160   16.8740 N   0  0  0  0  0  0  0  0  0  0  0  0
   -3.1470    3.5520   16.0470 C   0  0  0  0  0  0  0  0  0  0  0  0
   -3.5600    4.9740   17.0940 S   0  0  0  0  0  0  0  0  0  0  0  0
  1  2  1  0
  2  3  2  0
  4  3  1  0
  5  4  2  0
  6  5  1  0
  7  8  2  0
  7  6  1  0
  8  9  1  0
  9  1  2  0
  9  5  1  0
 10  7  1  0
 10 19  2  0
 11 10  1  0
 12 11  2  0
 12 13  1  0
 13 18  1  0
 14 13  2  0
 14 15  1  0
 15 16  2  0
 16 17  1  0
 18 19  1  0
 18 17  2  0
 20 21  1  0
 21  1  1  0
M  END
$$$$
