lig_408
     RDKit          3D

 27 30  0  0  0  0  0  0  0  0999 V2000
   -2.0820    9.5970   16.1440 N   0  0  0  0  0  0  0  0  0  0  0  0
   -2.7250    9.7490   14.8330 C   0  0  0  0  0  0  0  0  0  0  0  0
   -4.2460    9.6610   14.9030 C   0  0  0  0  0  0  0  0  0  0  0  0
   -4.7650    8.2560   15.1950 C   0  0  0  0  0  0  0  0  0  0  0  0
   -4.4020    7.7980   16.5970 C   0  0  0  0  0  0  0  0  0  0  0  0
   -3.0050    7.4530   16.7530 N   0  0  0  0  0  0  0  0  0  0  0  0
   -1.9450    8.3410   16.6580 C   0  0  0  0  0  0  0  0  0  0  0  0
   -0.8610    7.8030   17.1820 N   0  0  0  0  0  0  0  0  0  0  0  0
   -1.2000    6.5310   17.5000 C   0  0  0  0  0  0  0  0  0  0  0  0
   -2.5040    6.2660   17.2220 C   0  0  0  0  0  0  0  0  0  0  0  0
   -3.0950    4.9910   17.4550 C   0  0  0  0  0  0  0  0  0  0  0  0
   -4.2560    4.7220   17.1610 O   0  0  0  0  0  0  0  0  0  0  0  0
   -2.2090    4.0750   18.0330 N   0  0  0  0  0  0  0  0  0  0  0  0
   -2.6990    2.7390   18.3100 C   0  0  0  0  0  0  0  0  0  0  0  0
   -0.8460    4.3100   18.3030 C   0  0  0  0  0  0  0  0  0  0  0  0
   -0.1210    3.4120   18.7430 O   0  0  0  0  0  0  0  0  0  0  0  0
   -0.3590    5.5890   18.0440 N   0  0  0  0  0  0  0  0  0  0  0  0
    1.0290    5.9190   18.3120 C   0  0  0  0  0  0  0  0  0  0  0  0
   -1.0360   10.5750   16.5250 C   0  0  0  0  0  0  0  0  0  0  0  0
   -0.6600   13.0150   15.8430 C   0  0  0  0  0  0  0  0  0  0  0  0
   -1.0480   14.3600   15.8550 C   0  0  0  0  0  0  0  0  0  0  0  0
   -2.2340   14.7440   16.4790 C   0  0  0  0  0  0  0  0  0  0  0  0
   -3.0230   13.7870   17.1110 C   0  0  0  0  0  0  0  0  0  0  0  0
   -2.6230   12.4500   17.1200 C   0  0  0  0  0  0  0  0  0  0  0  0
   -1.4360   12.0380   16.4820 C   0  0  0  0  0  0  0  0  0  0  0  0
    1.0510   13.7250   14.4720 C   0  0  0  0  0  0  0  0  0  0  0  0
    0.5420   12.6710   15.2880 O   0  0  0  0  0  0  0  0  0  0  0  0
  1 19  1  0
  1  7  1  0
  2  3  1  0
  2  1  1  0
  3  4  1  0
  4  5  1  0
  5  6  1  0
  6 10  1  0
  7  6  1  0
  7  8  2  0
  8  9  1  0
  9 17  1  0
 10 11  1  0
 10  9  2  0
 11 13  1  0
 12 11  2  0
 13 15  1  0
 13 14  1  0
 15 16  2  0
 17 15  1  0
 17 18  1  0
 20 21  2  0
 20 25  1  0
 21 22  1  0
 22 23  2  0
 23 24  1  0
 25 19  1  0
 25 24  2  0
 26 27  1  0
 27 20  1  0
M  END
$$$$
