lig_020
     RDKit          3D

 31 35  0  0  0  0  0  0  0  0999 V2000
   21.1670   19.5630   12.2950 C   0  0  0  0  0  0  0  0  0  0  0  0
   21.7120   18.8520   11.2440 C   0  0  0  0  0  0  0  0  0  0  0  0
   21.0540   19.1650   10.0700 N   0  0  0  0  0  0  0  0  0  0  0  0
   19.9800   20.0020   10.3860 C   0  0  0  0  0  0  0  0  0  0  0  0
   18.9080   20.4920    9.6110 C   0  0  0  0  0  0  0  0  0  0  0  0
   17.9670   21.3370   10.2090 C   0  0  0  0  0  0  0  0  0  0  0  0
   18.0740   21.6700   11.5520 C   0  0  0  0  0  0  0  0  0  0  0  0
   16.9050   22.7130   12.2660 Cl  0  0  0  0  0  0  0  0  0  0  0  0
   19.1030   21.1520   12.3370 C   0  0  0  0  0  0  0  0  0  0  0  0
   20.0620   20.2900   11.7570 C   0  0  0  0  0  0  0  0  0  0  0  0
   21.4560   18.6980    8.7800 C   0  0  0  0  0  0  0  0  0  0  0  0
   21.6900   17.3280    8.5720 C   0  0  0  0  0  0  0  0  0  0  0  0
   22.0960   16.8660    7.3180 C   0  0  0  0  0  0  0  0  0  0  0  0
   22.2810   17.7690    6.2790 C   0  0  0  0  0  0  0  0  0  0  0  0
   22.6730   17.3240    5.0780 F   0  0  0  0  0  0  0  0  0  0  0  0
   22.0730   19.1280    6.4720 C   0  0  0  0  0  0  0  0  0  0  0  0
   21.6650   19.5970    7.7240 C   0  0  0  0  0  0  0  0  0  0  0  0
   23.0290   19.4310   16.1310 N   0  0  0  0  0  0  0  0  0  0  0  0
   23.4650   18.4490   15.1440 C   0  0  0  0  0  0  0  0  0  0  0  0
   22.3740   18.2490   14.0850 C   0  0  0  0  0  0  0  0  0  0  0  0
   21.6320   19.5530   13.7300 C   0  0  0  0  0  0  0  0  0  0  0  0
   22.4900   20.7740   14.0830 C   0  0  0  0  0  0  0  0  0  0  0  0
   22.8610   20.7740   15.5720 C   0  0  0  0  0  0  0  0  0  0  0  0
   23.8110   19.4040   17.3770 C   0  0  0  0  0  0  0  0  0  0  0  0
   23.5220   20.5140   18.4090 C   0  0  0  0  0  0  0  0  0  0  0  0
   25.6230   19.7570   20.3240 O   0  0  0  0  0  0  0  0  0  0  0  0
   24.4370   19.5750   20.5360 C   0  0  0  0  0  0  0  0  0  0  0  0
   23.9200   18.8860   21.6230 N   0  0  0  0  0  0  0  0  0  0  0  0
   22.4880   18.9950   21.6610 C   0  0  0  0  0  0  0  0  0  0  0  0
   22.1300   19.4170   20.2420 C   0  0  0  0  0  0  0  0  0  0  0  0
   23.3640   19.9990   19.7580 N   0  0  0  0  0  0  0  0  0  0  0  0
  1 21  1  0
  2  1  2  0
  3  4  1  0
  3  2  1  0
  4 10  2  0
  5  6  2  0
  5  4  1  0
  6  7  1  0
  7  8  1  0
  7  9  2  0
 10  1  1  0
 10  9  1  0
 11  3  1  0
 12 11  1  0
 13 12  2  0
 14 16  2  0
 14 13  1  0
 15 14  1  0
 16 17  1  0
 17 11  2  0
 18 24  1  0
 19 18  1  0
 20 19  1  0
 21 22  1  0
 21 20  1  0
 22 23  1  0
 23 18  1  0
 24 25  1  0
 25 31  1  0
 26 27  2  0
 27 28  1  0
 28 29  1  0
 30 29  1  0
 31 30  1  0
 31 27  1  0
M  END
$$$$
