lig_376
     RDKit          3D

 24 26  0  0  0  0  0  0  0  0999 V2000
   -1.9190    5.2930   17.8570 C   0  0  0  0  0  0  0  0  0  0  0  0
   -0.7520    6.0570   17.8800 C   0  0  0  0  0  0  0  0  0  0  0  0
    0.4420    5.6030   18.4500 N   0  0  0  0  0  0  0  0  0  0  0  0
   -0.7010    7.2890   17.3430 N   0  0  0  0  0  0  0  0  0  0  0  0
   -1.7960    7.8240   16.7540 C   0  0  0  0  0  0  0  0  0  0  0  0
   -3.0020    7.1140   16.6860 C   0  0  0  0  0  0  0  0  0  0  0  0
   -3.0760    5.8220   17.2490 C   0  0  0  0  0  0  0  0  0  0  0  0
   -4.3290    5.0360   17.1930 C   0  0  0  0  0  0  0  0  0  0  0  0
   -5.4400    5.4550   17.9470 C   0  0  0  0  0  0  0  0  0  0  0  0
   -6.6380    4.7380   17.9160 C   0  0  0  0  0  0  0  0  0  0  0  0
   -6.7460    3.5910   17.1340 C   0  0  0  0  0  0  0  0  0  0  0  0
   -5.6570    3.1570   16.3790 C   0  0  0  0  0  0  0  0  0  0  0  0
   -4.4580    3.8740   16.4070 C   0  0  0  0  0  0  0  0  0  0  0  0
   -3.1420    3.2830   15.4500 Cl  0  0  0  0  0  0  0  0  0  0  0  0
   -1.6960    9.1220   16.2030 N   0  0  0  0  0  0  0  0  0  0  0  0
   -0.9920   10.0280   17.1300 C   0  0  0  0  0  0  0  0  0  0  0  0
   -1.0620   11.4570   16.5890 C   0  0  0  0  0  0  0  0  0  0  0  0
   -0.5020   11.5410   15.1710 C   0  0  0  0  0  0  0  0  0  0  0  0
   -1.1700   10.5120   14.2590 C   0  0  0  0  0  0  0  0  0  0  0  0
   -1.0830    9.1090   14.8610 C   0  0  0  0  0  0  0  0  0  0  0  0
   -1.8980    2.9420   18.9520 N   0  0  0  0  0  0  0  0  0  0  0  0
   -1.9250    3.9890   18.4530 C   0  0  0  0  0  0  0  0  0  0  0  0
   -4.1410    7.6920   16.0300 C   0  0  0  0  0  0  0  0  0  0  0  0
   -5.0310    8.1720   15.4590 N   0  0  0  0  0  0  0  0  0  0  0  0
  1  2  1  0
  1 22  1  0
  2  3  1  0
  4  2  2  0
  5  4  1  0
  6  5  2  0
  6  7  1  0
  7  1  2  0
  8  7  1  0
  8  9  2  0
 10  9  1  0
 11 10  2  0
 12 13  2  0
 12 11  1  0
 13  8  1  0
 14 13  1  0
 15  5  1  0
 15 16  1  0
 17 16  1  0
 18 17  1  0
 19 20  1  0
 19 18  1  0
 20 15  1  0
 22 21  3  0
 23  6  1  0
 24 23  3  0
M  END
$$$$
