lig_012
     RDKit          3D

 39 46  0  0  1  0  0  0  0  0999 V2000
    5.9730  -26.5110   64.3110 C   0  0  1  0  0  0  0  0  0  0  0  0
    7.1480  -26.4290   65.3070 C   0  0  0  0  0  0  0  0  0  0  0  0
    6.7930  -27.1200   66.6320 C   0  0  0  0  0  0  0  0  0  0  0  0
    5.2920  -27.5670   66.6480 C   0  0  1  0  0  0  0  0  0  0  0  0
    5.2230  -28.6590   65.5540 C   0  0  0  0  0  0  0  0  0  0  0  0
    5.5550  -28.0360   64.1670 C   0  0  2  0  0  0  0  0  0  0  0  0
    4.8170  -28.0040   68.0760 C   0  0  1  0  0  0  0  0  0  0  0  0
    4.9170  -26.8170   69.1250 C   0  0  0  0  0  0  0  0  0  0  0  0
    4.7950  -25.4260   68.5360 C   0  0  0  0  0  0  0  0  0  0  0  0
    5.0530  -24.2510   69.2460 C   0  0  0  0  0  0  0  0  0  0  0  0
    5.1820  -23.0250   68.5620 C   0  0  0  0  0  0  0  0  0  0  0  0
    5.1070  -22.9830   67.1690 C   0  0  0  0  0  0  0  0  0  0  0  0
    4.8370  -24.1450   66.4820 C   0  0  0  0  0  0  0  0  0  0  0  0
    4.5960  -25.3060   67.1690 C   0  0  0  0  0  0  0  0  0  0  0  0
    4.3420  -26.4240   66.2330 C   0  0  2  0  0  0  0  0  0  0  0  0
    2.8580  -26.8410   66.2620 C   0  0  0  0  0  0  0  0  0  0  0  0
    2.4590  -27.5640   67.5520 C   0  0  0  0  0  0  0  0  0  0  0  0
    3.4490  -28.5740   67.9510 N   0  0  0  0  0  0  0  0  0  0  0  0
    4.7220  -25.7630   64.8960 C   0  0  1  0  0  0  0  0  0  0  0  0
    4.9110  -24.3220   65.1260 O   0  0  0  0  0  0  0  0  0  0  0  0
    7.5470  -25.3030   62.8860 C   0  0  0  0  0  0  0  0  0  0  0  0
    6.3510  -26.0550   63.0050 O   0  0  0  0  0  0  0  0  0  0  0  0
    5.3400  -21.8130   66.5150 O   0  0  0  0  0  0  0  0  0  0  0  0
    6.5760  -28.9250   63.4290 C   0  0  0  0  0  0  0  0  0  0  0  0
    6.7070  -28.5750   62.0360 N   0  0  0  0  0  0  0  0  0  0  0  0
    7.6600  -29.1230   61.2110 C   0  0  0  0  0  0  0  0  0  0  0  0
    8.6080  -29.7860   61.6290 O   0  0  0  0  0  0  0  0  0  0  0  0
    7.4530  -28.8500   59.7070 C   0  0  1  0  0  0  0  0  0  0  0  0
    6.3220  -29.6560   59.1730 N   0  0  0  0  0  0  0  0  0  0  0  0
    7.3160  -27.3460   59.4210 C   0  0  0  0  0  0  0  0  0  0  0  0
    5.9790  -26.8880   58.9240 C   0  0  0  0  0  0  0  0  0  0  0  0
    5.6090  -26.5760   57.6320 C   0  0  0  0  0  0  0  0  0  0  0  0
    4.2900  -26.2260   57.7060 N   0  0  0  0  0  0  0  0  0  0  0  0
    3.9070  -26.3340   59.0110 C   0  0  0  0  0  0  0  0  0  0  0  0
    4.9010  -26.7270   59.7730 N   0  0  0  0  0  0  0  0  0  0  0  0
    2.9820  -29.3150   69.1280 C   0  0  0  0  0  0  0  0  0  0  0  0
    3.5420  -30.7070   69.1490 C   0  0  0  0  0  0  0  0  0  0  0  0
    3.4310  -31.5720   67.9170 C   0  0  0  0  0  0  0  0  0  0  0  0
    2.6400  -31.9180   69.1460 C   0  0  0  0  0  0  0  0  0  0  0  0
  1 22  1  6
  1 19  1  0
  1  2  1  0
  2  3  1  0
  4  3  1  1
  4  5  1  0
  4  7  1  0
  6 24  1  1
  6  1  1  0
  6  5  1  0
  7  8  1  1
  9  8  1  0
  9 10  1  0
 11 10  2  0
 12 11  1  0
 13 14  1  0
 13 12  2  0
 14  9  2  0
 15 16  1  6
 15  4  1  0
 15 14  1  0
 16 17  1  0
 17 18  1  0
 18  7  1  0
 18 36  1  0
 19 20  1  1
 19 15  1  0
 20 13  1  0
 21 22  1  0
 23 12  1  0
 25 24  1  0
 26 27  2  0
 26 25  1  0
 28 30  1  0
 28 26  1  0
 28 29  1  1
 31 30  1  0
 31 35  1  0
 32 33  1  0
 32 31  2  0
 33 34  1  0
 34 35  2  0
 36 37  1  0
 38 39  1  0
 38 37  1  0
 39 37  1  0
M  END
$$$$
