lig_071
     RDKit          3D

 30 32  0  0  0  0  0  0  0  0999 V2000
    1.2590  -18.4060   14.9440 C   0  0  0  0  0  0  0  0  0  0  0  0
    1.5890  -19.9010   14.8140 C   0  0  0  0  0  0  0  0  0  0  0  0
   -0.8030  -22.7500   14.6560 N   0  0  0  0  0  0  0  0  0  0  0  0
   -1.2150  -21.3370   14.8020 C   0  0  0  0  0  0  0  0  0  0  0  0
   -0.5160  -20.4630   13.7300 C   0  0  0  0  0  0  0  0  0  0  0  0
    0.9650  -20.5750   13.6670 N   0  0  0  0  0  0  0  0  0  0  0  0
    1.3040  -22.0200   13.5810 C   0  0  0  0  0  0  0  0  0  0  0  0
    0.6620  -22.9180   14.6680 C   0  0  0  0  0  0  0  0  0  0  0  0
   -2.9000  -24.0820   15.0580 C   0  0  0  0  0  0  0  0  0  0  0  0
   -3.5830  -24.9960   15.8780 C   0  0  0  0  0  0  0  0  0  0  0  0
   -3.0150  -25.4510   17.0660 C   0  0  0  0  0  0  0  0  0  0  0  0
   -1.7540  -25.0060   17.4370 C   0  0  0  0  0  0  0  0  0  0  0  0
   -1.0620  -24.1170   16.6110 C   0  0  0  0  0  0  0  0  0  0  0  0
   -1.6020  -23.6400   15.3970 C   0  0  0  0  0  0  0  0  0  0  0  0
   -2.8640  -24.3210   12.7290 C   0  0  0  0  0  0  0  0  0  0  0  0
   -3.4580  -23.6940   13.8630 O   0  0  0  0  0  0  0  0  0  0  0  0
    2.3500  -17.4510   14.4470 C   0  0  0  0  0  0  0  0  0  0  0  0
    2.4950  -17.3980   12.9280 C   0  0  0  0  0  0  0  0  0  0  0  0
    1.9620  -16.1590   12.3880 N   0  0  0  0  0  0  0  0  0  0  0  0
    0.6970  -16.0950   11.8430 C   0  0  0  0  0  0  0  0  0  0  0  0
   -0.0760  -17.0440   11.8010 O   0  0  0  0  0  0  0  0  0  0  0  0
    0.3000  -14.7860   11.2520 C   0  0  0  0  0  0  0  0  0  0  0  0
   -0.6420  -14.0060   11.9300 C   0  0  0  0  0  0  0  0  0  0  0  0
   -1.0380  -12.7720   11.4100 C   0  0  0  0  0  0  0  0  0  0  0  0
   -0.4880  -12.2950   10.2120 C   0  0  0  0  0  0  0  0  0  0  0  0
    0.4680  -13.0690    9.5420 C   0  0  0  0  0  0  0  0  0  0  0  0
    0.8630  -14.3090   10.0610 C   0  0  0  0  0  0  0  0  0  0  0  0
   -0.9430  -10.9680    9.6970 C   0  0  0  0  0  0  0  0  0  0  0  0
   -1.5140   -9.9660   10.6650 C   0  0  0  0  0  0  0  0  0  0  0  0
   -0.8420  -10.7090    8.5000 O   0  0  0  0  0  0  0  0  0  0  0  0
  2  1  1  0
  3  8  1  0
  3  4  1  0
  3 14  1  0
  5  4  1  0
  6  5  1  0
  6  2  1  0
  7  6  1  0
  7  8  1  0
  9 14  1  0
  9 10  2  0
 10 11  1  0
 11 12  2  0
 13 12  1  0
 14 13  2  0
 15 16  1  0
 16  9  1  0
 17  1  1  0
 18 17  1  0
 19 18  1  0
 20 19  1  0
 21 20  2  0
 22 20  1  0
 22 23  1  0
 24 23  2  0
 25 24  1  0
 26 27  1  0
 26 25  2  0
 27 22  2  0
 28 25  1  0
 28 29  1  0
 30 28  2  0
M  END
$$$$
