lig_024
     RDKit          3D

 33 37  0  0  1  0  0  0  0  0999 V2000
  123.7760  140.1750  108.7200 N   0  0  0  0  0  0  0  0  0  0  0  0
  124.7490  140.1870  107.5820 C   0  0  2  0  0  0  0  0  0  0  0  0
  124.9790  141.6080  107.0030 C   0  0  0  0  0  0  0  0  0  0  0  0
  124.6480  141.7500  105.6160 O   0  0  0  0  0  0  0  0  0  0  0  0
  125.3240  140.8290  104.8570 C   0  0  0  0  0  0  0  0  0  0  0  0
  125.9180  141.2390  103.6650 C   0  0  0  0  0  0  0  0  0  0  0  0
  125.8630  142.5240  103.2850 F   0  0  0  0  0  0  0  0  0  0  0  0
  126.5880  140.3250  102.8630 C   0  0  0  0  0  0  0  0  0  0  0  0
  126.6480  138.9850  103.2500 C   0  0  0  0  0  0  0  0  0  0  0  0
  126.0240  138.5580  104.4370 C   0  0  0  0  0  0  0  0  0  0  0  0
  125.3570  139.4840  105.2560 C   0  0  0  0  0  0  0  0  0  0  0  0
  124.5410  139.1320  106.4730 C   0  0  0  0  0  0  0  0  0  0  0  0
  126.1170  137.1220  104.7970 C   0  0  0  0  0  0  0  0  0  0  0  0
  127.3170  136.7070  105.3000 N   0  0  0  0  0  0  0  0  0  0  0  0
  125.1780  136.3530  104.6520 O   0  0  0  0  0  0  0  0  0  0  0  0
  124.2180  141.0000  109.8620 C   0  0  0  0  0  0  0  0  0  0  0  0
  123.9530  140.3100  111.2270 C   0  0  0  0  0  0  0  0  0  0  0  0
  123.4780  141.6890  111.7340 C   0  0  0  0  0  0  0  0  0  0  0  0
  123.0790  141.9820  110.2720 C   0  0  0  0  0  0  0  0  0  0  0  0
  122.4420  140.6470  108.2830 C   0  0  0  0  0  0  0  0  0  0  0  0
  121.4110  139.5170  108.1510 C   0  0  0  0  0  0  0  0  0  0  0  0
  120.6270  139.5850  106.8360 C   0  0  0  0  0  0  0  0  0  0  0  0
  122.3710  140.5000  102.5650 C   0  0  0  0  0  0  0  0  0  0  0  0
  122.8460  139.3520  101.9310 C   0  0  0  0  0  0  0  0  0  0  0  0
  122.7780  138.0990  102.5540 C   0  0  0  0  0  0  0  0  0  0  0  0
  122.2180  138.0350  103.8340 C   0  0  0  0  0  0  0  0  0  0  0  0
  122.0280  136.9590  104.6690 N   0  0  0  0  0  0  0  0  0  0  0  0
  121.4420  137.3630  105.8360 C   0  0  0  0  0  0  0  0  0  0  0  0
  121.2410  138.7280  105.7730 C   0  0  0  0  0  0  0  0  0  0  0  0
  121.7330  139.1600  104.4990 C   0  0  0  0  0  0  0  0  0  0  0  0
  121.8140  140.4090  103.8480 C   0  0  0  0  0  0  0  0  0  0  0  0
  123.4010  142.0600  101.0940 C   0  0  0  0  0  0  0  0  0  0  0  0
  122.3900  141.7690  102.0480 O   0  0  0  0  0  0  0  0  0  0  0  0
  1 16  1  0
  2  1  1  1
  3  2  1  0
  4  3  1  0
  5 11  1  0
  5  4  1  0
  6  5  2  0
  7  6  1  0
  8  9  2  0
  8  6  1  0
  9 10  1  0
 10 13  1  0
 10 11  2  0
 11 12  1  0
 12  2  1  0
 13 14  1  0
 15 13  2  0
 16 19  1  0
 16 17  1  0
 17 18  1  0
 19 18  1  0
 20  1  1  0
 21 20  1  0
 22 21  1  0
 23 31  2  0
 24 25  2  0
 24 23  1  0
 25 26  1  0
 26 30  2  0
 26 27  1  0
 27 28  1  0
 29 28  2  0
 29 22  1  0
 30 29  1  0
 31 30  1  0
 32 33  1  0
 33 23  1  0
M  END
$$$$
