lig_024
     RDKit          3D

 29 31  0  0  0  0  0  0  0  0999 V2000
   -2.3090    6.2100   17.3210 C   0  0  0  0  0  0  0  0  0  0  0  0
   -3.6320    5.8190   17.2180 C   0  0  0  0  0  0  0  0  0  0  0  0
   -3.9370    4.5400   17.6140 C   0  0  0  0  0  0  0  0  0  0  0  0
   -5.2200    3.9870   17.5790 N   0  0  0  0  0  0  0  0  0  0  0  0
   -6.3940    4.5780   17.1730 C   0  0  0  0  0  0  0  0  0  0  0  0
   -7.5780    3.6490   17.2760 C   0  0  0  0  0  0  0  0  0  0  0  0
   -6.5320    5.7170   16.7430 O   0  0  0  0  0  0  0  0  0  0  0  0
   -3.0130    3.6820   18.0780 N   0  0  0  0  0  0  0  0  0  0  0  0
   -1.7410    4.1250   18.1500 C   0  0  0  0  0  0  0  0  0  0  0  0
   -0.7210    3.2260   18.6440 N   0  0  0  0  0  0  0  0  0  0  0  0
    0.5840    3.6320   18.7300 N   0  0  0  0  0  0  0  0  0  0  0  0
    1.2510    2.5830   19.2150 C   0  0  0  0  0  0  0  0  0  0  0  0
    2.7140    2.6750   19.4390 C   0  0  0  0  0  0  0  0  0  0  0  0
    0.4030    1.4880   19.4490 C   0  0  0  0  0  0  0  0  0  0  0  0
   -0.8580    1.9090   19.0810 C   0  0  0  0  0  0  0  0  0  0  0  0
   -2.1380    1.1590   19.1180 C   0  0  0  0  0  0  0  0  0  0  0  0
   -1.3620    5.3640   17.7860 N   0  0  0  0  0  0  0  0  0  0  0  0
   -2.4900    9.6270   15.9810 C   0  0  0  0  0  0  0  0  0  0  0  0
   -1.1810   10.0860   16.1160 C   0  0  0  0  0  0  0  0  0  0  0  0
   -0.1980    9.2620   16.6630 C   0  0  0  0  0  0  0  0  0  0  0  0
   -0.5350    7.9810   17.0690 C   0  0  0  0  0  0  0  0  0  0  0  0
   -1.8530    7.5620   16.9300 C   0  0  0  0  0  0  0  0  0  0  0  0
   -2.8030    8.3870   16.4150 N   0  0  0  0  0  0  0  0  0  0  0  0
   -3.5100   10.4160   15.4540 N   0  0  0  0  0  0  0  0  0  0  0  0
   -4.9010   10.0540   15.6650 C   0  0  0  0  0  0  0  0  0  0  0  0
   -3.2060   11.8460   15.2510 C   0  0  0  0  0  0  0  0  0  0  0  0
   -3.8250   12.7680   16.3190 C   0  0  0  0  0  0  0  0  0  0  0  0
   -1.6950   13.6820   16.7630 C   0  0  0  0  0  0  0  0  0  0  0  0
   -2.8800   13.1390   17.3230 O   0  0  0  0  0  0  0  0  0  0  0  0
  1 17  2  0
  2  1  1  0
  2  3  2  0
  3  8  1  0
  4  3  1  0
  5  6  1  0
  5  4  1  0
  7  5  2  0
  8  9  2  0
  9 10  1  0
 10 11  1  0
 10 15  1  0
 11 12  2  0
 12 13  1  0
 12 14  1  0
 15 16  1  0
 15 14  2  0
 17  9  1  0
 18 19  2  0
 18 23  1  0
 19 20  1  0
 20 21  2  0
 22 21  1  0
 22  1  1  0
 23 22  2  0
 24 25  1  0
 24 18  1  0
 26 24  1  0
 26 27  1  0
 27 29  1  0
 28 29  1  0
M  END
$$$$
