lig_011
     RDKit          3D

 21 25  0  0  1  0  0  0  0  0999 V2000
  185.5480  168.4440  171.0790 C   0  0  0  0  0  0  0  0  0  0  0  0
  184.6060  168.3050  172.1850 N   0  0  0  0  0  0  0  0  0  0  0  0
  183.4130  169.1250  171.9800 C   0  0  0  0  0  0  0  0  0  0  0  0
  182.3960  168.9920  173.1270 C   0  0  0  0  0  0  0  0  0  0  0  0
  183.0630  168.9660  174.5260 C   0  0  2  0  0  0  0  0  0  0  0  0
  183.0870  167.5610  175.0360 C   0  0  0  0  0  0  0  0  0  0  0  0
  184.0800  166.6190  174.8300 C   0  0  0  0  0  0  0  0  0  0  0  0
  183.8720  165.3510  175.3770 C   0  0  0  0  0  0  0  0  0  0  0  0
  182.7020  165.0740  176.1180 C   0  0  0  0  0  0  0  0  0  0  0  0
  181.7510  166.0740  176.3520 C   0  0  0  0  0  0  0  0  0  0  0  0
  181.9750  167.3250  175.8230 C   0  0  0  0  0  0  0  0  0  0  0  0
  181.2310  168.4660  176.0150 O   0  0  0  0  0  0  0  0  0  0  0  0
  182.1470  169.5290  175.6270 C   0  0  1  0  0  0  0  0  0  0  0  0
  182.9140  170.0560  176.8560 C   0  0  0  0  0  0  0  0  0  0  0  0
  182.4200  170.0930  177.9850 O   0  0  0  0  0  0  0  0  0  0  0  0
  184.2810  170.6590  176.6130 C   0  0  0  0  0  0  0  0  0  0  0  0
  185.1490  169.7210  175.7860 C   0  0  0  0  0  0  0  0  0  0  0  0
  184.5000  169.4830  174.4170 C   0  0  1  0  0  0  0  0  0  0  0  0
  185.2660  168.4700  173.5060 C   0  0  1  0  0  0  0  0  0  0  0  0
  185.3540  167.0440  174.1450 C   0  0  0  0  0  0  0  0  0  0  0  0
  180.6410  165.8400  177.1010 O   0  0  0  0  0  0  0  0  0  0  0  0
  1  2  1  0
  2 19  1  0
  3  2  1  0
  3  4  1  0
  5  4  1  6
  5  6  1  0
  5 13  1  0
  6 11  1  0
  7  6  2  0
  7  8  1  0
  8  9  2  0
  9 10  1  0
 10 21  1  0
 11 12  1  0
 11 10  2  0
 13 12  1  1
 13 14  1  0
 14 15  2  0
 16 14  1  0
 17 16  1  0
 18  5  1  0
 18 17  1  1
 19 20  1  1
 19 18  1  0
 20  7  1  0
M  END
$$$$
