lig_018
     RDKit          3D

 23 26  0  0  1  0  0  0  0  0999 V2000
  -12.3890  -16.0260   40.0440 C   0  0  0  0  0  0  0  0  0  0  0  0
  -11.2300  -15.8600   40.6800 N   0  0  0  0  0  0  0  0  0  0  0  0
  -10.0730  -16.3430   39.5720 S   0  0  0  0  0  0  0  0  0  0  0  0
  -11.0520  -16.7350   38.2730 N   0  0  0  0  0  0  0  0  0  0  0  0
  -12.3050  -16.4980   38.6880 C   0  0  0  0  0  0  0  0  0  0  0  0
  -13.4770  -16.7270   37.7850 C   0  0  2  0  0  0  0  0  0  0  0  0
  -13.3230  -17.7810   36.6800 C   0  0  0  0  0  0  0  0  0  0  0  0
  -13.9570  -17.2100   35.4580 N   0  0  0  0  0  0  0  0  0  0  0  0
  -12.9260  -16.5750   34.6090 C   0  0  0  0  0  0  0  0  0  0  0  0
  -12.6820  -15.0840   34.8720 C   0  0  0  0  0  0  0  0  0  0  0  0
  -12.9080  -14.6640   36.3260 C   0  0  0  0  0  0  0  0  0  0  0  0
  -14.0020  -15.4940   37.0290 C   0  0  1  0  0  0  0  0  0  0  0  0
  -14.8810  -16.1840   35.9870 C   0  0  0  0  0  0  0  0  0  0  0  0
  -13.5550  -15.6950   40.6540 O   0  0  0  0  0  0  0  0  0  0  0  0
  -14.2530  -14.5890   40.0740 C   0  0  0  0  0  0  0  0  0  0  0  0
  -13.3320  -13.4880   39.7630 C   0  0  0  0  0  0  0  0  0  0  0  0
  -12.5740  -12.5880   39.5250 C   0  0  0  0  0  0  0  0  0  0  0  0
  -11.6670  -11.5150   39.2580 C   0  0  0  0  0  0  0  0  0  0  0  0
  -10.5500  -11.3210   40.0730 C   0  0  0  0  0  0  0  0  0  0  0  0
   -9.6650  -10.2730   39.8090 C   0  0  0  0  0  0  0  0  0  0  0  0
   -9.8990   -9.4190   38.7310 C   0  0  0  0  0  0  0  0  0  0  0  0
  -11.0140   -9.6100   37.9160 C   0  0  0  0  0  0  0  0  0  0  0  0
  -11.8990  -10.6580   38.1790 C   0  0  0  0  0  0  0  0  0  0  0  0
  1 14  1  0
  1  2  2  0
  3  2  1  0
  4  5  2  0
  4  3  1  0
  5  1  1  0
  6  5  1  6
  7  6  1  0
  8  9  1  0
  8 13  1  0
  8  7  1  0
  9 10  1  0
 10 11  1  0
 12 11  1  6
 12 13  1  0
 12  6  1  0
 15 14  1  0
 16 15  1  0
 17 16  3  0
 18 17  1  0
 18 19  2  0
 20 19  1  0
 21 20  2  0
 22 23  2  0
 22 21  1  0
 23 18  1  0
M  END
$$$$
