lig_013
     RDKit          3D

 30 33  0  0  0  0  0  0  0  0999 V2000
    9.9760    6.3780  -11.5760 C   0  0  0  0  0  0  0  0  0  0  0  0
   10.9560    7.3720  -10.9320 C   0  0  0  0  0  0  0  0  0  0  0  0
   10.3540    8.4560  -10.0380 C   0  0  0  0  0  0  0  0  0  0  0  0
    9.4590    6.7440   -7.9930 O   0  0  0  0  0  0  0  0  0  0  0  0
   10.3120    7.5860   -7.7250 C   0  0  0  0  0  0  0  0  0  0  0  0
   10.8550    8.4170   -8.6860 N   0  0  0  0  0  0  0  0  0  0  0  0
   10.8210    7.8010   -6.3610 C   0  0  0  0  0  0  0  0  0  0  0  0
   11.0740    9.0080   -5.7300 C   0  0  0  0  0  0  0  0  0  0  0  0
   11.5200    8.6990   -4.4720 N   0  0  0  0  0  0  0  0  0  0  0  0
   11.8950    9.5460   -3.4320 C   0  0  0  0  0  0  0  0  0  0  0  0
   12.3070    9.0110   -2.2700 C   0  0  0  0  0  0  0  0  0  0  0  0
   12.3480    7.5610   -2.1380 C   0  0  0  0  0  0  0  0  0  0  0  0
   11.9800    6.7510   -3.1510 C   0  0  0  0  0  0  0  0  0  0  0  0
   11.5410    7.3140   -4.3820 C   0  0  0  0  0  0  0  0  0  0  0  0
   11.1280    6.7560   -5.4990 N   0  0  0  0  0  0  0  0  0  0  0  0
   10.2630    6.0260  -13.0420 C   0  0  0  0  0  0  0  0  0  0  0  0
    9.3280    5.0270  -13.5860 N   0  0  0  0  0  0  0  0  0  0  0  0
    7.9320    5.2630  -13.1230 C   0  0  0  0  0  0  0  0  0  0  0  0
    7.0570    3.9890  -12.9400 C   0  0  0  0  0  0  0  0  0  0  0  0
    7.4160    2.9660  -13.9310 N   0  0  0  0  0  0  0  0  0  0  0  0
    8.8500    2.5950  -13.9480 C   0  0  0  0  0  0  0  0  0  0  0  0
    9.7410    3.6530  -13.2450 C   0  0  0  0  0  0  0  0  0  0  0  0
    6.5310    1.9570  -14.3280 C   0  0  0  0  0  0  0  0  0  0  0  0
    5.5750    1.5550  -13.3650 C   0  0  0  0  0  0  0  0  0  0  0  0
    4.6570    0.5300  -13.5970 C   0  0  0  0  0  0  0  0  0  0  0  0
    4.6620   -0.1300  -14.8150 C   0  0  0  0  0  0  0  0  0  0  0  0
    5.5740    0.2450  -15.8030 C   0  0  0  0  0  0  0  0  0  0  0  0
    5.4920   -0.6280  -17.3000 Cl  0  0  0  0  0  0  0  0  0  0  0  0
    6.5030    1.2860  -15.5760 C   0  0  0  0  0  0  0  0  0  0  0  0
    7.5310    1.7680  -16.8940 Cl  0  0  0  0  0  0  0  0  0  0  0  0
  1  2  1  0
  2  3  1  0
  3  6  1  0
  4  5  2  0
  5  7  1  0
  6  5  1  0
  7  8  2  0
  7 15  1  0
  8  9  1  0
  9 14  1  0
  9 10  1  0
 10 11  2  0
 11 12  1  0
 13 12  2  0
 14 13  1  0
 15 14  2  0
 16  1  1  0
 17 22  1  0
 17 18  1  0
 17 16  1  0
 18 19  1  0
 20 19  1  0
 21 20  1  0
 21 22  1  0
 23 20  1  0
 23 24  2  0
 25 24  1  0
 26 25  2  0
 27 29  2  0
 27 26  1  0
 28 27  1  0
 29 23  1  0
 30 29  1  0
M  END
$$$$
