lig_011
     RDKit          3D

 25 28  0  0  0  0  0  0  0  0999 V2000
   -2.7940    5.9180   17.1770 C   0  0  0  0  0  0  0  0  0  0  0  0
   -3.3380    4.7900   17.7200 C   0  0  0  0  0  0  0  0  0  0  0  0
   -2.6350    3.8690   18.4910 N   0  0  0  0  0  0  0  0  0  0  0  0
   -1.3660    4.0620   18.6980 C   0  0  0  0  0  0  0  0  0  0  0  0
   -0.6480    3.1580   19.4370 N   0  0  0  0  0  0  0  0  0  0  0  0
   -0.7420    5.1850   18.1630 N   0  0  0  0  0  0  0  0  0  0  0  0
    0.5460    5.6210   18.2520 C   0  0  0  0  0  0  0  0  0  0  0  0
    0.6870    6.7300   17.5630 N   0  0  0  0  0  0  0  0  0  0  0  0
   -0.5440    7.0450   17.0270 N   0  0  0  0  0  0  0  0  0  0  0  0
   -1.4000    6.1160   17.4030 C   0  0  0  0  0  0  0  0  0  0  0  0
   -4.2480    9.1330   15.8990 C   0  0  0  0  0  0  0  0  0  0  0  0
   -3.4970    8.2560   16.6610 C   0  0  0  0  0  0  0  0  0  0  0  0
   -3.5900    6.8910   16.3870 C   0  0  0  0  0  0  0  0  0  0  0  0
   -4.4550    6.4680   15.3730 C   0  0  0  0  0  0  0  0  0  0  0  0
   -5.1690    7.4210   14.6530 C   0  0  0  0  0  0  0  0  0  0  0  0
   -6.0890    6.9940   13.5510 C   0  0  0  0  0  0  0  0  0  0  0  0
   -5.0710    8.7470   14.9010 N   0  0  0  0  0  0  0  0  0  0  0  0
   -5.3020   11.2180   15.9860 C   0  0  0  0  0  0  0  0  0  0  0  0
   -4.1070   10.4730   16.1990 O   0  0  0  0  0  0  0  0  0  0  0  0
   -4.7700    4.4390   17.5370 C   0  0  0  0  0  0  0  0  0  0  0  0
   -5.1260    3.4290   16.6300 C   0  0  0  0  0  0  0  0  0  0  0  0
   -6.4650    3.0800   16.4470 C   0  0  0  0  0  0  0  0  0  0  0  0
   -7.4620    3.7430   17.1610 C   0  0  0  0  0  0  0  0  0  0  0  0
   -7.1220    4.7610   18.0510 C   0  0  0  0  0  0  0  0  0  0  0  0
   -5.7840    5.1130   18.2330 C   0  0  0  0  0  0  0  0  0  0  0  0
  1 10  1  0
  1  2  2  0
  2  3  1  0
  3  4  2  0
  4  5  1  0
  6  7  1  0
  6  4  1  0
  8  7  2  0
  9 10  2  0
  9  8  1  0
 10  6  1  0
 11 19  1  0
 11 12  2  0
 13 12  1  0
 13  1  1  0
 14 13  2  0
 15 17  2  0
 15 14  1  0
 16 15  1  0
 17 11  1  0
 18 19  1  0
 20  2  1  0
 20 25  1  0
 21 20  2  0
 22 21  1  0
 22 23  2  0
 23 24  1  0
 24 25  2  0
M  END
$$$$
