lig_031
     RDKit          3D

 31 34  0  0  0  0  0  0  0  0999 V2000
   -4.0210    7.2620   16.7880 C   0  0  0  0  0  0  0  0  0  0  0  0
   -2.7700    6.8680   17.2070 C   0  0  0  0  0  0  0  0  0  0  0  0
   -2.6300    5.5480   17.5760 C   0  0  0  0  0  0  0  0  0  0  0  0
   -1.3700    5.0100   18.0250 N   0  0  0  0  0  0  0  0  0  0  0  0
   -1.3670    3.7570   18.5740 N   0  0  0  0  0  0  0  0  0  0  0  0
   -0.1170    3.5350   18.9740 C   0  0  0  0  0  0  0  0  0  0  0  0
    0.2330    2.2620   19.6490 C   0  0  0  0  0  0  0  0  0  0  0  0
    0.7260    4.6060   18.6500 C   0  0  0  0  0  0  0  0  0  0  0  0
   -0.0740    5.5340   18.0100 C   0  0  0  0  0  0  0  0  0  0  0  0
    0.3690    6.8080   17.3890 C   0  0  0  0  0  0  0  0  0  0  0  0
   -3.6860    4.6980   17.5540 N   0  0  0  0  0  0  0  0  0  0  0  0
   -4.8740    5.1670   17.1380 C   0  0  0  0  0  0  0  0  0  0  0  0
   -5.0730    6.4370   16.7460 N   0  0  0  0  0  0  0  0  0  0  0  0
   -6.0220    4.2250   17.1190 C   0  0  0  0  0  0  0  0  0  0  0  0
   -6.0010    3.0580   16.3460 C   0  0  0  0  0  0  0  0  0  0  0  0
   -7.1000    2.2020   16.3560 C   0  0  0  0  0  0  0  0  0  0  0  0
   -8.2020    2.5220   17.1360 C   0  0  0  0  0  0  0  0  0  0  0  0
   -8.1590    3.6890   17.8760 C   0  0  0  0  0  0  0  0  0  0  0  0
   -7.1080    4.5370   17.8860 N   0  0  0  0  0  0  0  0  0  0  0  0
   -4.9230    8.9680   15.1990 C   0  0  0  0  0  0  0  0  0  0  0  0
   -5.2770    8.2350   14.2790 O   0  0  0  0  0  0  0  0  0  0  0  0
   -4.3340    8.5590   16.3740 N   0  0  0  0  0  0  0  0  0  0  0  0
   -5.0790   10.4780   15.1030 C   0  0  0  0  0  0  0  0  0  0  0  0
   -1.5090   12.6260   16.2690 C   0  0  0  0  0  0  0  0  0  0  0  0
   -1.4190   11.5200   15.4240 C   0  0  0  0  0  0  0  0  0  0  0  0
   -2.5730   10.8270   15.0420 C   0  0  0  0  0  0  0  0  0  0  0  0
   -3.8330   11.2310   15.5020 C   0  0  0  0  0  0  0  0  0  0  0  0
   -3.9190   12.3450   16.3450 C   0  0  0  0  0  0  0  0  0  0  0  0
   -2.7640   13.0340   16.7230 C   0  0  0  0  0  0  0  0  0  0  0  0
    0.4290   13.8930   15.7320 C   0  0  0  0  0  0  0  0  0  0  0  0
   -0.4650   13.3870   16.7160 O   0  0  0  0  0  0  0  0  0  0  0  0
  1  2  2  0
  2  3  1  0
  3  4  1  0
  4  5  1  0
  5  6  2  0
  6  7  1  0
  8  6  1  0
  9  4  1  0
  9  8  2  0
 10  9  1  0
 11  3  2  0
 12 11  1  0
 13  1  1  0
 13 12  2  0
 14 12  1  0
 14 19  1  0
 15 16  1  0
 15 14  2  0
 16 17  2  0
 17 18  1  0
 18 19  2  0
 20 22  1  0
 21 20  2  0
 22  1  1  0
 23 20  1  0
 23 27  1  0
 24 31  1  0
 24 29  2  0
 25 24  1  0
 26 25  2  0
 26 27  1  0
 27 28  2  0
 28 29  1  0
 30 31  1  0
M  END
$$$$
