lig_024
     RDKit          3D

 22 25  0  0  1  0  0  0  0  0999 V2000
   22.8560   18.0780   13.1080 C   0  0  1  0  0  0  0  0  0  0  0  0
   21.5140   17.7160   13.7440 C   0  0  0  0  0  0  0  0  0  0  0  0
   20.8270   16.9810   12.6050 C   0  0  0  0  0  0  0  0  0  0  0  0
   21.1060   17.8440   11.3260 C   0  0  1  0  0  0  0  0  0  0  0  0
   21.2920   16.8170   10.1690 C   0  0  0  0  0  0  0  0  0  0  0  0
   21.6760   17.1860    8.7510 C   0  0  0  0  0  0  0  0  0  0  0  0
   22.0210   16.0970    7.9150 C   0  0  0  0  0  0  0  0  0  0  0  0
   22.3750   16.2740    6.5790 C   0  0  0  0  0  0  0  0  0  0  0  0
   22.3880   17.5500    6.0410 C   0  0  0  0  0  0  0  0  0  0  0  0
   22.0410   18.6370    6.8420 C   0  0  0  0  0  0  0  0  0  0  0  0
   21.6700   18.4740    8.1960 C   0  0  0  0  0  0  0  0  0  0  0  0
   21.3540   19.7230    8.9760 C   0  0  0  0  0  0  0  0  0  0  0  0
   20.1060   19.6780    9.8270 C   0  0  0  0  0  0  0  0  0  0  0  0
   19.0490   20.5460    9.4750 C   0  0  0  0  0  0  0  0  0  0  0  0
   17.8960   20.6280   10.2480 C   0  0  0  0  0  0  0  0  0  0  0  0
   17.7890   19.8530   11.3900 C   0  0  0  0  0  0  0  0  0  0  0  0
   18.8230   18.9800   11.7450 C   0  0  0  0  0  0  0  0  0  0  0  0
   19.9920   18.8490   10.9680 C   0  0  0  0  0  0  0  0  0  0  0  0
   22.4230   18.5890   11.7180 C   0  0  0  0  0  0  0  0  0  0  0  0
   24.4300   18.3940   14.9330 C   0  0  0  0  0  0  0  0  0  0  0  0
   23.6540   19.0500   13.8750 N   0  0  0  0  0  0  0  0  0  0  0  0
   22.8190   20.0980   14.4670 C   0  0  0  0  0  0  0  0  0  0  0  0
  1  2  1  0
  1 21  1  1
  3  2  1  0
  4  5  1  6
  4 19  1  0
  4  3  1  0
  6  5  1  0
  7  6  2  0
  8  7  1  0
  9  8  2  0
  9 10  1  0
 10 11  2  0
 11  6  1  0
 11 12  1  0
 12 13  1  0
 13 18  1  0
 14 13  2  0
 14 15  1  0
 15 16  2  0
 16 17  1  0
 18  4  1  0
 18 17  2  0
 19  1  1  0
 21 22  1  0
 21 20  1  0
M  END
$$$$
