lig_018
     RDKit          3D

 25 30  0  0  1  0  0  0  0  0999 V2000
    5.9830  -29.0120   68.9300 C   0  0  0  0  0  0  0  0  0  0  0  0
    7.3680  -28.8200   68.8490 C   0  0  0  0  0  0  0  0  0  0  0  0
    7.9410  -28.1930   67.7220 C   0  0  0  0  0  0  0  0  0  0  0  0
    7.1380  -27.7920   66.6540 C   0  0  0  0  0  0  0  0  0  0  0  0
    5.7850  -28.0690   66.7440 C   0  0  0  0  0  0  0  0  0  0  0  0
    5.2020  -28.6090   67.8700 C   0  0  0  0  0  0  0  0  0  0  0  0
    3.8330  -28.6110   67.7990 O   0  0  0  0  0  0  0  0  0  0  0  0
    3.5080  -27.7770   66.6300 C   0  0  1  0  0  0  0  0  0  0  0  0
    3.0360  -26.3860   67.1000 C   0  0  1  0  0  0  0  0  0  0  0  0
    4.1840  -25.3890   67.2700 C   0  0  0  0  0  0  0  0  0  0  0  0
    5.0520  -25.1940   66.0170 C   0  0  0  0  0  0  0  0  0  0  0  0
    5.1200  -26.4090   65.0660 C   0  0  1  0  0  0  0  0  0  0  0  0
    6.5450  -26.6170   64.4210 C   0  0  1  0  0  0  0  0  0  0  0  0
    7.6420  -26.9920   65.4800 C   0  0  0  0  0  0  0  0  0  0  0  0
    6.3630  -27.6000   63.3020 N   0  0  0  0  0  0  0  0  0  0  0  0
    5.9630  -28.9310   63.7920 C   0  0  0  0  0  0  0  0  0  0  0  0
    4.7030  -28.8780   64.6660 C   0  0  0  0  0  0  0  0  0  0  0  0
    4.7510  -27.7480   65.7200 C   0  0  1  0  0  0  0  0  0  0  0  0
    5.4040  -29.5570   70.0350 O   0  0  0  0  0  0  0  0  0  0  0  0
    2.0870  -25.8680   66.1670 O   0  0  0  0  0  0  0  0  0  0  0  0
    4.2040  -26.1230   63.9880 O   0  0  0  0  0  0  0  0  0  0  0  0
    7.5100  -27.7110   62.3920 C   0  0  0  0  0  0  0  0  0  0  0  0
    7.4590  -28.9910   61.6090 C   0  0  0  0  0  0  0  0  0  0  0  0
    7.1570  -28.9760   60.1300 C   0  0  0  0  0  0  0  0  0  0  0  0
    8.5380  -29.3270   60.6070 C   0  0  0  0  0  0  0  0  0  0  0  0
  1 19  1  0
  2  1  1  0
  3  2  2  0
  4  5  2  0
  4  3  1  0
  5  6  1  0
  6  1  2  0
  7  6  1  0
  8  9  1  0
  8  7  1  1
  9 20  1  6
  9 10  1  0
 11 10  1  0
 12 21  1  6
 12 18  1  0
 12 11  1  0
 13 12  1  0
 13 14  1  1
 14  4  1  0
 15 16  1  0
 15 13  1  0
 16 17  1  0
 18 17  1  6
 18  8  1  0
 18  5  1  0
 22 15  1  0
 23 22  1  0
 24 25  1  0
 24 23  1  0
 25 23  1  0
M  END
$$$$
