lig_020
     RDKit          3D

 32 36  0  0  1  0  0  0  0  0999 V2000
  125.1240  135.1500  108.4380 C   0  0  0  0  0  0  0  0  0  0  0  0
  125.8740  139.0800  106.8780 C   0  0  1  0  0  0  0  0  0  0  0  0
  124.6040  138.4940  107.5200 C   0  0  0  0  0  0  0  0  0  0  0  0
  124.2840  137.1000  106.9810 C   0  0  0  0  0  0  0  0  0  0  0  0
  125.4190  136.0870  107.2450 C   0  0  1  0  0  0  0  0  0  0  0  0
  126.7760  136.7850  107.4620 C   0  0  0  0  0  0  0  0  0  0  0  0
  126.9260  138.0040  106.5600 C   0  0  0  0  0  0  0  0  0  0  0  0
  125.1390  141.8160  106.7380 O   0  0  0  0  0  0  0  0  0  0  0  0
  125.1270  141.1380  105.7150 C   0  0  0  0  0  0  0  0  0  0  0  0
  125.5510  139.8220  105.6650 N   0  0  0  0  0  0  0  0  0  0  0  0
  124.6590  141.6900  104.3790 C   0  0  0  0  0  0  0  0  0  0  0  0
  125.5360  141.1650  103.2830 C   0  0  0  0  0  0  0  0  0  0  0  0
  126.8470  141.4990  103.0060 C   0  0  0  0  0  0  0  0  0  0  0  0
  127.3560  140.8000  101.8730 C   0  0  0  0  0  0  0  0  0  0  0  0
  126.4190  139.9530  101.3260 C   0  0  0  0  0  0  0  0  0  0  0  0
  124.9340  140.0050  102.1720 S   0  0  0  0  0  0  0  0  0  0  0  0
  125.6930  135.6750  109.7680 C   0  0  0  0  0  0  0  0  0  0  0  0
  125.2380  134.8830  110.9240 N   0  0  0  0  0  0  0  0  0  0  0  0
  126.1320  135.0850  112.0910 C   0  0  0  0  0  0  0  0  0  0  0  0
  126.0140  136.4640  112.7810 C   0  0  0  0  0  0  0  0  0  0  0  0
  124.6130  136.7400  113.1700 N   0  0  0  0  0  0  0  0  0  0  0  0
  124.4240  137.8510  113.9590 C   0  0  0  0  0  0  0  0  0  0  0  0
  123.8610  138.9760  113.5230 N   0  0  0  0  0  0  0  0  0  0  0  0
  123.8330  140.0900  114.7360 S   0  0  0  0  0  0  0  0  0  0  0  0
  124.5410  139.0930  115.9360 C   0  0  0  0  0  0  0  0  0  0  0  0
  124.8270  139.3840  117.2820 C   0  0  0  0  0  0  0  0  0  0  0  0
  125.3930  138.3800  118.0720 C   0  0  0  0  0  0  0  0  0  0  0  0
  125.6590  137.1250  117.5410 C   0  0  0  0  0  0  0  0  0  0  0  0
  125.3730  136.8490  116.1990 C   0  0  0  0  0  0  0  0  0  0  0  0
  124.8130  137.8500  115.3620 C   0  0  0  0  0  0  0  0  0  0  0  0
  123.6820  136.5900  112.0280 C   0  0  0  0  0  0  0  0  0  0  0  0
  123.8570  135.2090  111.3540 C   0  0  0  0  0  0  0  0  0  0  0  0
  1 17  1  0
  2 10  1  6
  2  3  1  0
  4  5  1  0
  4  3  1  0
  5  6  1  0
  5  1  1  1
  7  2  1  0
  7  6  1  0
  9  8  2  0
 10  9  1  0
 11  9  1  0
 12 11  1  0
 13 12  2  0
 14 13  1  0
 15 14  2  0
 15 16  1  0
 16 12  1  0
 17 18  1  0
 18 32  1  0
 18 19  1  0
 19 20  1  0
 20 21  1  0
 21 22  1  0
 22 30  1  0
 23 22  2  0
 23 24  1  0
 24 25  1  0
 25 26  2  0
 26 27  1  0
 28 27  2  0
 29 28  1  0
 30 25  1  0
 30 29  2  0
 31 21  1  0
 32 31  1  0
M  END
$$$$
