lig_020
     RDKit          3D

 34 37  0  0  1  0  0  0  0  0999 V2000
  179.2070  167.9390  138.9630 C   0  0  0  0  0  0  0  0  0  0  0  0
  180.0420  169.2300  139.0930 C   0  0  0  0  0  0  0  0  0  0  0  0
  179.2460  170.3130  139.8140 C   0  0  0  0  0  0  0  0  0  0  0  0
  177.9740  170.5550  139.1170 N   0  0  0  0  0  0  0  0  0  0  0  0
  177.1120  169.3590  139.0150 C   0  0  0  0  0  0  0  0  0  0  0  0
  177.8570  168.2460  138.2820 C   0  0  0  0  0  0  0  0  0  0  0  0
  179.5030  164.3900  136.6110 C   0  0  0  0  0  0  0  0  0  0  0  0
  180.2010  164.3840  137.9740 C   0  0  0  0  0  0  0  0  0  0  0  0
  179.6510  165.4850  138.8740 C   0  0  0  0  0  0  0  0  0  0  0  0
  179.9130  166.8160  138.3180 N   0  0  0  0  0  0  0  0  0  0  0  0
  179.9430  166.8710  136.8520 C   0  0  0  0  0  0  0  0  0  0  0  0
  179.0810  165.8010  136.1850 C   0  0  0  0  0  0  0  0  0  0  0  0
  180.4270  163.8700  135.6350 O   0  0  0  0  0  0  0  0  0  0  0  0
  179.6980  161.5420  131.3330 C   0  0  0  0  0  0  0  0  0  0  0  0
  179.5310  161.6320  132.8280 C   0  0  0  0  0  0  0  0  0  0  0  0
  178.7730  160.6830  133.5420 C   0  0  0  0  0  0  0  0  0  0  0  0
  177.9960  159.3480  132.7640 Cl  0  0  0  0  0  0  0  0  0  0  0  0
  178.5980  160.7900  134.9270 C   0  0  0  0  0  0  0  0  0  0  0  0
  179.1660  161.8470  135.6290 C   0  0  0  0  0  0  0  0  0  0  0  0
  179.9180  162.8000  134.9440 C   0  0  0  0  0  0  0  0  0  0  0  0
  180.0780  162.7150  133.5500 C   0  0  0  0  0  0  0  0  0  0  0  0
  180.9550  163.9710  132.7320 Cl  0  0  0  0  0  0  0  0  0  0  0  0
  177.8970  171.7050  137.9030 S   0  0  0  0  0  0  0  0  0  0  0  0
  176.5290  171.9790  137.5450 O   0  0  0  0  0  0  0  0  0  0  0  0
  178.8860  171.3750  136.9000 O   0  0  0  0  0  0  0  0  0  0  0  0
  178.5360  173.0020  138.6970 N   0  0  0  0  0  0  0  0  0  0  0  0
  177.8100  173.9990  139.3570 C   0  0  0  0  0  0  0  0  0  0  0  0
  176.5930  174.0210  139.4530 O   0  0  0  0  0  0  0  0  0  0  0  0
  178.6370  175.0670  139.9870 C   0  0  0  0  0  0  0  0  0  0  0  0
  179.6040  174.7930  140.9660 C   0  0  0  0  0  0  0  0  0  0  0  0
  180.3370  175.8370  141.5370 C   0  0  0  0  0  0  0  0  0  0  0  0
  180.1130  177.1530  141.1340 C   0  0  0  0  0  0  0  0  0  0  0  0
  179.1620  177.4310  140.1550 C   0  0  0  0  0  0  0  0  0  0  0  0
  178.4270  176.3920  139.5800 C   0  0  0  0  0  0  0  0  0  0  0  0
  1  2  1  0
  2  3  1  0
  4  3  1  0
  5  4  1  0
  6  1  1  0
  6  5  1  0
  7 13  1  0
  7  8  1  0
  8  9  1  0
 10  9  1  0
 10  1  1  0
 11 10  1  0
 12  7  1  0
 12 11  1  0
 14 15  1  0
 15 16  2  0
 15 21  1  0
 16 18  1  0
 17 16  1  0
 18 19  2  0
 20 19  1  0
 20 13  1  0
 21 20  2  0
 22 21  1  0
 23 26  1  0
 23  4  1  0
 24 23  2  0
 25 23  2  0
 26 27  1  0
 27 28  2  0
 27 29  1  0
 29 30  2  0
 30 31  1  0
 32 31  2  0
 33 32  1  0
 34 29  1  0
 34 33  2  0
M  END
$$$$
