lig_146
     RDKit          3D

 20 22  0  0  0  0  0  0  0  0999 V2000
   -2.8430    5.2880   17.2140 C   0  0  0  0  0  0  0  0  0  0  0  0
   -2.7510    6.6230   16.7940 C   0  0  0  0  0  0  0  0  0  0  0  0
   -1.5880    7.3390   17.0330 C   0  0  0  0  0  0  0  0  0  0  0  0
   -0.5260    6.7910   17.6640 N   0  0  0  0  0  0  0  0  0  0  0  0
   -0.6010    5.5080   18.0590 C   0  0  0  0  0  0  0  0  0  0  0  0
   -1.7350    4.7180   17.8620 C   0  0  0  0  0  0  0  0  0  0  0  0
   -7.5440    4.6050   17.8830 C   0  0  0  0  0  0  0  0  0  0  0  0
   -6.2460    4.2560   17.2730 C   0  0  0  0  0  0  0  0  0  0  0  0
   -5.8440    3.2810   16.3900 C   0  0  0  0  0  0  0  0  0  0  0  0
   -4.4540    3.4740   16.1890 C   0  0  0  0  0  0  0  0  0  0  0  0
   -4.0870    4.5610   16.9580 C   0  0  0  0  0  0  0  0  0  0  0  0
   -5.1850    5.0320   17.6260 O   0  0  0  0  0  0  0  0  0  0  0  0
   -1.4410    8.7330   16.6180 C   0  0  0  0  0  0  0  0  0  0  0  0
   -0.4450    9.6840   16.7560 C   0  0  0  0  0  0  0  0  0  0  0  0
   -0.9140   10.8640   16.1270 C   0  0  0  0  0  0  0  0  0  0  0  0
   -2.1640   10.5660   15.6440 C   0  0  0  0  0  0  0  0  0  0  0  0
   -2.4920    9.2840   15.9350 O   0  0  0  0  0  0  0  0  0  0  0  0
    0.5370    5.0530   18.7240 N   0  0  0  0  0  0  0  0  0  0  0  0
   -1.7240    3.3540   18.2950 C   0  0  0  0  0  0  0  0  0  0  0  0
   -1.7010    2.2480   18.6510 N   0  0  0  0  0  0  0  0  0  0  0  0
  1  6  2  0
  2  3  2  0
  2  1  1  0
  3  4  1  0
  4  5  2  0
  5 18  1  0
  6  5  1  0
  6 19  1  0
  8 12  1  0
  8  7  1  0
  9  8  2  0
 10  9  1  0
 10 11  2  0
 11  1  1  0
 11 12  1  0
 13 14  2  0
 13  3  1  0
 15 14  1  0
 16 17  1  0
 16 15  2  0
 17 13  1  0
 19 20  3  0
M  END
$$$$
