lig_001
     RDKit          3D

 35 37  0  0  0  0  0  0  0  0999 V2000
   14.8210    0.0520   59.0500 N   0  0  0  0  0  0  0  0  0  0  0  0
   14.7350   -0.2950   60.3980 C   0  0  0  0  0  0  0  0  0  0  0  0
   15.5000    0.2030   61.2320 O   0  0  0  0  0  0  0  0  0  0  0  0
   13.9380   -0.3890   57.9460 C   0  0  0  0  0  0  0  0  0  0  0  0
   12.9700    0.6950   57.4470 C   0  0  0  0  0  0  0  0  0  0  0  0
   12.8320    0.6860   55.9230 C   0  0  0  0  0  0  0  0  0  0  0  0
   12.6650   -0.6430   55.3350 N   0  0  0  0  0  0  0  0  0  0  0  0
   11.2860   -1.1170   55.4090 C   0  0  0  0  0  0  0  0  0  0  0  0
   13.6150   -1.6540   55.8250 C   0  0  0  0  0  0  0  0  0  0  0  0
   14.6580   -1.1190   56.8080 C   0  0  0  0  0  0  0  0  0  0  0  0
   15.8730    1.0130   58.6750 C   0  0  0  0  0  0  0  0  0  0  0  0
   17.7600    0.5600   57.0050 C   0  0  0  0  0  0  0  0  0  0  0  0
   18.9560   -0.0920   56.6810 C   0  0  0  0  0  0  0  0  0  0  0  0
   19.5710   -0.9730   57.5880 C   0  0  0  0  0  0  0  0  0  0  0  0
   18.9640   -1.2100   58.8240 C   0  0  0  0  0  0  0  0  0  0  0  0
   17.7740   -0.5640   59.1550 C   0  0  0  0  0  0  0  0  0  0  0  0
   17.1610    0.3280   58.2580 C   0  0  0  0  0  0  0  0  0  0  0  0
   20.8490   -1.6810   57.2090 C   0  0  0  0  0  0  0  0  0  0  0  0
   21.0280   -2.8360   57.9080 F   0  0  0  0  0  0  0  0  0  0  0  0
   21.9670   -0.9330   57.4260 F   0  0  0  0  0  0  0  0  0  0  0  0
   20.8890   -2.0320   55.8930 F   0  0  0  0  0  0  0  0  0  0  0  0
   16.7420    0.9750   54.8820 C   0  0  0  0  0  0  0  0  0  0  0  0
   17.1080    1.4360   56.1770 O   0  0  0  0  0  0  0  0  0  0  0  0
   13.6510   -1.2630   60.8530 C   0  0  0  0  0  0  0  0  0  0  0  0
   12.4410   -0.5810   61.4540 C   0  0  0  0  0  0  0  0  0  0  0  0
   12.5380    0.1050   62.6700 C   0  0  0  0  0  0  0  0  0  0  0  0
   11.4150    0.7320   63.2150 C   0  0  0  0  0  0  0  0  0  0  0  0
   10.1820    0.6820   62.5640 C   0  0  0  0  0  0  0  0  0  0  0  0
   10.0780   -0.0080   61.3570 C   0  0  0  0  0  0  0  0  0  0  0  0
   11.2010   -0.6370   60.8060 C   0  0  0  0  0  0  0  0  0  0  0  0
    9.1690    1.3380   63.2080 O   0  0  0  0  0  0  0  0  0  0  0  0
    8.8980    0.9580   64.5570 C   0  0  0  0  0  0  0  0  0  0  0  0
    8.1600   -0.3890   64.5530 C   0  0  0  0  0  0  0  0  0  0  0  0
    6.7880   -0.2480   65.2110 C   0  0  0  0  0  0  0  0  0  0  0  0
    8.9780   -1.4750   65.2570 C   0  0  0  0  0  0  0  0  0  0  0  0
  1  2  1  0
  2 24  1  0
  2  3  2  0
  4  1  1  0
  5  4  1  0
  6  5  1  0
  7  8  1  0
  7  9  1  0
  7  6  1  0
  9 10  1  0
 10  4  1  0
 11  1  1  0
 12 17  2  0
 13 12  1  0
 13 14  2  0
 14 15  1  0
 15 16  2  0
 17 11  1  0
 17 16  1  0
 18 20  1  0
 18 14  1  0
 18 19  1  0
 21 18  1  0
 22 23  1  0
 23 12  1  0
 24 25  1  0
 25 26  1  0
 26 27  2  0
 28 31  1  0
 28 27  1  0
 29 28  2  0
 30 29  1  0
 30 25  2  0
 31 32  1  0
 33 32  1  0
 33 34  1  0
 33 35  1  0
M  END
$$$$
