lig_021
     RDKit          3D

 30 34  0  0  0  0  0  0  0  0999 V2000
    8.9550    7.3880  -11.9990 C   0  0  0  0  0  0  0  0  0  0  0  0
    8.1560    6.1930  -11.7180 N   0  0  0  0  0  0  0  0  0  0  0  0
    6.8020    6.2410  -12.3050 C   0  0  0  0  0  0  0  0  0  0  0  0
    6.1550    4.8480  -12.4670 C   0  0  0  0  0  0  0  0  0  0  0  0
    6.9600    4.0480  -13.4040 N   0  0  0  0  0  0  0  0  0  0  0  0
    8.4240    4.1320  -13.2350 C   0  0  0  0  0  0  0  0  0  0  0  0
    8.8430    4.9140  -11.9660 C   0  0  0  0  0  0  0  0  0  0  0  0
    6.4570    2.7580  -13.6630 C   0  0  0  0  0  0  0  0  0  0  0  0
    5.5440    2.2460  -12.7190 C   0  0  0  0  0  0  0  0  0  0  0  0
    4.9710    0.9890  -12.8570 C   0  0  0  0  0  0  0  0  0  0  0  0
    5.2890    0.1920  -13.9520 C   0  0  0  0  0  0  0  0  0  0  0  0
    6.1960    0.6840  -14.9100 C   0  0  0  0  0  0  0  0  0  0  0  0
    6.7160   -0.1430  -16.3320 S   0  0  0  0  0  0  0  0  0  0  0  0
    7.7190    1.1450  -16.8060 C   0  0  0  0  0  0  0  0  0  0  0  0
    7.6680    2.1870  -15.9110 C   0  0  0  0  0  0  0  0  0  0  0  0
    6.7900    1.9460  -14.7930 C   0  0  0  0  0  0  0  0  0  0  0  0
   10.4600    7.2840  -11.7060 C   0  0  0  0  0  0  0  0  0  0  0  0
   10.8500    7.8960  -10.3550 C   0  0  0  0  0  0  0  0  0  0  0  0
   10.4270    7.0450   -9.1560 C   0  0  0  0  0  0  0  0  0  0  0  0
   11.9280    6.5460   -2.1310 O   0  0  0  0  0  0  0  0  0  0  0  0
   11.9130    7.2520   -3.1370 C   0  0  0  0  0  0  0  0  0  0  0  0
   12.5570    8.6190   -3.1730 C   0  0  0  0  0  0  0  0  0  0  0  0
   11.8220    9.5710   -4.1010 C   0  0  0  0  0  0  0  0  0  0  0  0
   11.5390    8.9280   -5.4290 C   0  0  0  0  0  0  0  0  0  0  0  0
   11.4120    9.6910   -6.5940 C   0  0  0  0  0  0  0  0  0  0  0  0
   11.0570    9.0800   -7.7970 C   0  0  0  0  0  0  0  0  0  0  0  0
   10.8010    7.7030   -7.8500 C   0  0  0  0  0  0  0  0  0  0  0  0
   10.9210    6.9400   -6.6800 C   0  0  0  0  0  0  0  0  0  0  0  0
   11.2960    7.5520   -5.4830 C   0  0  0  0  0  0  0  0  0  0  0  0
   11.4040    6.7860   -4.3190 N   0  0  0  0  0  0  0  0  0  0  0  0
  1  2  1  0
  1 17  1  0
  3  2  1  0
  4  3  1  0
  5  6  1  0
  5  4  1  0
  6  7  1  0
  7  2  1  0
  8  5  1  0
  8  9  1  0
 10  9  2  0
 11 10  1  0
 12 16  1  0
 12 11  2  0
 13 12  1  0
 14 13  1  0
 14 15  2  0
 15 16  1  0
 16  8  2  0
 17 18  1  0
 18 19  1  0
 19 27  1  0
 21 20  2  0
 22 21  1  0
 23 22  1  0
 24 23  1  0
 25 24  1  0
 26 25  2  0
 27 26  1  0
 27 28  2  0
 28 29  1  0
 29 24  2  0
 29 30  1  0
 30 21  1  0
M  END
$$$$
