lig_078
     RDKit          3D

 28 30  0  0  0  0  0  0  0  0999 V2000
    1.9860  -19.9360   12.2720 C   0  0  0  0  0  0  0  0  0  0  0  0
    0.9780  -20.9820   12.4380 N   0  0  0  0  0  0  0  0  0  0  0  0
    1.3630  -22.0320   13.3980 C   0  0  0  0  0  0  0  0  0  0  0  0
    0.1990  -22.9620   13.8210 C   0  0  0  0  0  0  0  0  0  0  0  0
   -0.9740  -22.2120   14.3140 N   0  0  0  0  0  0  0  0  0  0  0  0
   -0.9670  -20.7590   14.0640 C   0  0  0  0  0  0  0  0  0  0  0  0
   -0.3880  -20.4700   12.6600 C   0  0  0  0  0  0  0  0  0  0  0  0
   -1.5320  -22.6110   15.5340 C   0  0  0  0  0  0  0  0  0  0  0  0
   -0.6630  -22.5790   16.6410 C   0  0  0  0  0  0  0  0  0  0  0  0
   -1.0860  -22.9530   17.9170 C   0  0  0  0  0  0  0  0  0  0  0  0
   -2.3960  -23.3730   18.1120 C   0  0  0  0  0  0  0  0  0  0  0  0
   -3.2830  -23.4200   17.0330 C   0  0  0  0  0  0  0  0  0  0  0  0
   -4.8950  -23.9600   17.3700 Cl  0  0  0  0  0  0  0  0  0  0  0  0
   -2.8610  -23.0450   15.7430 C   0  0  0  0  0  0  0  0  0  0  0  0
   -3.9850  -23.1310   14.4180 Cl  0  0  0  0  0  0  0  0  0  0  0  0
    2.0600  -17.5210   12.9810 C   0  0  0  0  0  0  0  0  0  0  0  0
    1.4640  -18.5250   12.3160 C   0  0  0  0  0  0  0  0  0  0  0  0
    1.5490  -16.1160   13.0310 C   0  0  0  0  0  0  0  0  0  0  0  0
   -0.4400  -14.4320   11.9470 O   0  0  0  0  0  0  0  0  0  0  0  0
    0.4660  -14.8310   11.2210 C   0  0  0  0  0  0  0  0  0  0  0  0
    1.4900  -15.6290   11.6770 N   0  0  0  0  0  0  0  0  0  0  0  0
    0.4780  -14.4520    9.7800 C   0  0  0  0  0  0  0  0  0  0  0  0
    0.8280  -13.1350    9.4410 C   0  0  0  0  0  0  0  0  0  0  0  0
    0.8550  -12.7280    8.1030 C   0  0  0  0  0  0  0  0  0  0  0  0
    0.5320  -13.6310    7.0910 C   0  0  0  0  0  0  0  0  0  0  0  0
    0.1820  -14.9400    7.4160 C   0  0  0  0  0  0  0  0  0  0  0  0
    0.1560  -15.3420    8.7520 C   0  0  0  0  0  0  0  0  0  0  0  0
   -0.1910  -16.6120    9.0160 F   0  0  0  0  0  0  0  0  0  0  0  0
  1 17  1  0
  1  2  1  0
  2  7  1  0
  2  3  1  0
  3  4  1  0
  4  5  1  0
  5  8  1  0
  6  5  1  0
  7  6  1  0
  8 14  1  0
  8  9  2  0
  9 10  1  0
 10 11  2  0
 12 13  1  0
 12 11  1  0
 14 12  2  0
 15 14  1  0
 16 18  1  0
 17 16  2  0
 20 21  1  0
 20 19  2  0
 21 18  1  0
 22 20  1  0
 23 22  2  0
 24 23  1  0
 25 26  1  0
 25 24  2  0
 26 27  2  0
 27 28  1  0
 27 22  1  0
M  END
$$$$
