lig_440
     RDKit          3D

 28 31  0  0  0  0  0  0  0  0999 V2000
   -1.3680    4.5230   18.5560 N   0  0  0  0  0  0  0  0  0  0  0  0
   -0.4340    5.5280   18.2790 C   0  0  0  0  0  0  0  0  0  0  0  0
    0.7370    5.5200   18.6440 O   0  0  0  0  0  0  0  0  0  0  0  0
   -0.9810    6.5910   17.5220 C   0  0  0  0  0  0  0  0  0  0  0  0
   -0.4100    7.7440   17.0700 N   0  0  0  0  0  0  0  0  0  0  0  0
   -1.3860    8.4350   16.3930 C   0  0  0  0  0  0  0  0  0  0  0  0
   -2.5310    7.7730   16.3990 N   0  0  0  0  0  0  0  0  0  0  0  0
   -2.2690    6.6330   17.0980 C   0  0  0  0  0  0  0  0  0  0  0  0
   -3.1510    5.6180   17.3780 N   0  0  0  0  0  0  0  0  0  0  0  0
   -2.7190    4.5300   18.1470 C   0  0  0  0  0  0  0  0  0  0  0  0
   -3.4920    3.6200   18.4580 O   0  0  0  0  0  0  0  0  0  0  0  0
   -1.1870    9.8070   15.7110 C   0  0  0  0  0  0  0  0  0  0  0  0
   -1.7580   10.3190   14.5420 C   0  0  0  0  0  0  0  0  0  0  0  0
   -1.3340   11.5560   14.2750 N   0  0  0  0  0  0  0  0  0  0  0  0
   -0.4750   11.8520   15.2870 N   0  0  0  0  0  0  0  0  0  0  0  0
   -0.3670   10.8060   16.1740 C   0  0  0  0  0  0  0  0  0  0  0  0
    0.1790   13.1100   15.3310 C   0  0  0  0  0  0  0  0  0  0  0  0
    0.1190   13.9310   16.4610 C   0  0  0  0  0  0  0  0  0  0  0  0
    0.7780   15.1590   16.4580 C   0  0  0  0  0  0  0  0  0  0  0  0
    1.4880   15.5520   15.3270 C   0  0  0  0  0  0  0  0  0  0  0  0
    1.5580   14.7520   14.2000 N   0  0  0  0  0  0  0  0  0  0  0  0
    2.2110   15.1330   13.1810 O   0  0  0  0  0  0  0  0  0  0  0  0
    0.9020   13.5360   14.2110 C   0  0  0  0  0  0  0  0  0  0  0  0
   -4.5430    5.6940   16.9520 C   0  0  0  0  0  0  0  0  0  0  0  0
   -4.7520    5.0640   15.5840 C   0  0  0  0  0  0  0  0  0  0  0  0
   -0.9030    3.3940   19.3560 C   0  0  0  0  0  0  0  0  0  0  0  0
    1.0580    1.7890   19.0390 C   0  0  0  0  0  0  0  0  0  0  0  0
   -0.2860    2.2710   18.5130 C   0  0  0  0  0  0  0  0  0  0  0  0
  1 26  1  0
  2  1  1  0
  2  3  2  0
  4  2  1  0
  5  4  1  0
  6  7  2  0
  6  5  1  0
  7  8  1  0
  8  9  1  0
  8  4  2  0
  9 10  1  0
 10 11  2  0
 10  1  1  0
 12 16  2  0
 12  6  1  0
 13 12  1  0
 14 13  2  0
 14 15  1  0
 15 17  1  0
 15 16  1  0
 17 18  1  0
 19 18  2  0
 20 19  1  0
 21 23  1  0
 21 20  2  0
 22 21  1  0
 23 17  2  0
 24  9  1  0
 25 24  1  0
 28 27  1  0
 28 26  1  0
M  CHG  2  21   1  22  -1
M  END
$$$$
