lig_023
     RDKit          3D

 27 30  0  0  1  0  0  0  0  0999 V2000
  183.8490  170.0160  170.4720 C   0  0  0  0  0  0  0  0  0  0  0  0
  185.2250  170.0240  171.1610 C   0  0  1  0  0  0  0  0  0  0  0  0
  185.1920  170.7660  172.5130 C   0  0  1  0  0  0  0  0  0  0  0  0
  184.2580  170.0290  173.5060 C   0  0  0  0  0  0  0  0  0  0  0  0
  184.2840  168.5160  173.4300 C   0  0  0  0  0  0  0  0  0  0  0  0
  183.5440  167.7970  174.3840 C   0  0  0  0  0  0  0  0  0  0  0  0
  183.5260  166.4050  174.3680 C   0  0  0  0  0  0  0  0  0  0  0  0
  184.2510  165.7280  173.4010 C   0  0  0  0  0  0  0  0  0  0  0  0
  184.9900  166.4190  172.4430 C   0  0  0  0  0  0  0  0  0  0  0  0
  185.0070  167.8270  172.4300 C   0  0  0  0  0  0  0  0  0  0  0  0
  185.8370  168.6150  171.4000 C   0  0  1  0  0  0  0  0  0  0  0  0
  185.9710  167.8780  170.0490 C   0  0  0  0  0  0  0  0  0  0  0  0
  187.2640  168.8180  171.9820 C   0  0  0  0  0  0  0  0  0  0  0  0
  187.2820  169.7010  173.2360 C   0  0  0  0  0  0  0  0  0  0  0  0
  186.5480  170.9700  173.0940 N   0  0  0  0  0  0  0  0  0  0  0  0
  184.2180  164.3640  173.4240 O   0  0  0  0  0  0  0  0  0  0  0  0
  187.3710  171.9730  172.3850 C   0  0  0  0  0  0  0  0  0  0  0  0
  188.3450  172.7130  173.3070 C   0  0  0  0  0  0  0  0  0  0  0  0
  188.6380  174.1150  172.7950 C   0  0  0  0  0  0  0  0  0  0  0  0
  189.7580  174.6090  172.8530 O   0  0  0  0  0  0  0  0  0  0  0  0
  187.5040  174.7010  172.2550 N   0  0  0  0  0  0  0  0  0  0  0  0
  187.3880  175.9810  171.6740 C   0  0  0  0  0  0  0  0  0  0  0  0
  186.8460  176.0490  170.3830 C   0  0  0  0  0  0  0  0  0  0  0  0
  186.6980  177.2780  169.7350 C   0  0  0  0  0  0  0  0  0  0  0  0
  187.0900  178.4520  170.3710 C   0  0  0  0  0  0  0  0  0  0  0  0
  187.6310  178.3940  171.6540 C   0  0  0  0  0  0  0  0  0  0  0  0
  187.7790  177.1640  172.3030 C   0  0  0  0  0  0  0  0  0  0  0  0
  2  1  1  1
  2 11  1  0
  2  3  1  0
  3 15  1  0
  3  4  1  1
  5  4  1  0
  5  6  1  0
  7  6  2  0
  8 16  1  0
  8  7  1  0
  9  8  2  0
 10  9  1  0
 10  5  2  0
 11 12  1  6
 11 13  1  0
 11 10  1  0
 13 14  1  0
 15 14  1  0
 17 15  1  0
 17 18  1  0
 19 20  2  0
 19 18  1  0
 21 19  1  0
 22 21  1  0
 22 27  1  0
 23 22  2  0
 24 25  2  0
 24 23  1  0
 25 26  1  0
 26 27  2  0
M  END
$$$$
