lig_314
     RDKit          3D

 31 34  0  0  0  0  0  0  0  0999 V2000
    1.0050  -18.3120   12.9830 N   0  0  0  0  0  0  0  0  0  0  0  0
    2.0600  -17.2940   12.7740 C   0  0  0  0  0  0  0  0  0  0  0  0
    1.5180  -15.8620   12.5890 C   0  0  0  0  0  0  0  0  0  0  0  0
    0.6990  -15.8170   11.3720 N   0  0  0  0  0  0  0  0  0  0  0  0
   -0.1520  -16.9840   11.0930 C   0  0  0  0  0  0  0  0  0  0  0  0
   -0.2580  -17.9450   12.3040 C   0  0  0  0  0  0  0  0  0  0  0  0
    0.2410  -14.5670   10.9540 C   0  0  0  0  0  0  0  0  0  0  0  0
   -0.6110  -13.8910   11.8410 C   0  0  0  0  0  0  0  0  0  0  0  0
   -1.1240  -12.6390   11.5290 C   0  0  0  0  0  0  0  0  0  0  0  0
   -0.7850  -12.0440   10.3180 C   0  0  0  0  0  0  0  0  0  0  0  0
    0.0530  -12.6660    9.4060 C   0  0  0  0  0  0  0  0  0  0  0  0
    0.3230  -12.0110    8.2610 N   0  0  0  0  0  0  0  0  0  0  0  0
    1.1360  -12.5930    7.3520 C   0  0  0  0  0  0  0  0  0  0  0  0
    1.4110  -11.8330    6.0890 C   0  0  0  0  0  0  0  0  0  0  0  0
    1.7040  -13.8390    7.5540 C   0  0  0  0  0  0  0  0  0  0  0  0
    1.4220  -14.5110    8.7390 C   0  0  0  0  0  0  0  0  0  0  0  0
    0.5780  -13.9430    9.7150 C   0  0  0  0  0  0  0  0  0  0  0  0
    1.4960  -19.6520   12.6250 C   0  0  0  0  0  0  0  0  0  0  0  0
    1.1640  -20.7430   13.6620 C   0  0  0  0  0  0  0  0  0  0  0  0
   -1.2210  -23.7370   13.5490 C   0  0  0  0  0  0  0  0  0  0  0  0
   -1.5680  -23.7470   12.1980 C   0  0  0  0  0  0  0  0  0  0  0  0
   -1.0420  -22.7910   11.3270 C   0  0  0  0  0  0  0  0  0  0  0  0
   -0.1580  -21.8210   11.7970 C   0  0  0  0  0  0  0  0  0  0  0  0
    0.2120  -21.7980   13.1450 C   0  0  0  0  0  0  0  0  0  0  0  0
   -0.3280  -22.7610   14.0130 C   0  0  0  0  0  0  0  0  0  0  0  0
   -2.9960  -25.7020   16.0400 N   0  0  0  0  0  0  0  0  0  0  0  0
   -2.7800  -24.5300   15.3380 C   0  0  0  0  0  0  0  0  0  0  0  0
   -3.4660  -23.5310   15.4990 O   0  0  0  0  0  0  0  0  0  0  0  0
   -1.7020  -24.6710   14.4890 N   0  0  0  0  0  0  0  0  0  0  0  0
   -3.7150  -25.3850   18.3740 C   0  0  0  0  0  0  0  0  0  0  0  0
   -4.1030  -25.8140   16.9700 C   0  0  0  0  0  0  0  0  0  0  0  0
  2  1  1  0
  3  2  1  0
  4  3  1  0
  5  4  1  0
  5  6  1  0
  6  1  1  0
  7  4  1  0
  7  8  1  0
  9  8  2  0
 10  9  1  0
 11 17  1  0
 11 10  2  0
 12 11  1  0
 13 15  1  0
 13 12  2  0
 14 13  1  0
 15 16  2  0
 16 17  1  0
 17  7  2  0
 18  1  1  0
 18 19  1  0
 20 25  1  0
 20 29  1  0
 21 20  2  0
 22 23  2  0
 22 21  1  0
 23 24  1  0
 24 19  1  0
 24 25  2  0
 26 31  1  0
 27 28  2  0
 27 26  1  0
 29 27  1  0
 31 30  1  0
M  END
$$$$
