lig_402
     RDKit          3D

 20 23  0  0  0  0  0  0  0  0999 V2000
   -3.2880    5.2950   17.0310 C   0  0  0  0  0  0  0  0  0  0  0  0
   -1.9270    5.7980   17.4110 C   0  0  0  0  0  0  0  0  0  0  0  0
   -1.0280    4.9400   18.0790 C   0  0  0  0  0  0  0  0  0  0  0  0
    0.2490    5.3650   18.4530 C   0  0  0  0  0  0  0  0  0  0  0  0
    0.6920    6.6610   18.1800 C   0  0  0  0  0  0  0  0  0  0  0  0
   -0.2070    7.4980   17.5200 C   0  0  0  0  0  0  0  0  0  0  0  0
   -0.1140    8.7990   17.1020 N   0  0  0  0  0  0  0  0  0  0  0  0
   -1.2940    9.1560   16.4940 C   0  0  0  0  0  0  0  0  0  0  0  0
   -2.1400    8.1420   16.5030 N   0  0  0  0  0  0  0  0  0  0  0  0
   -1.4840    7.1070   17.1340 C   0  0  0  0  0  0  0  0  0  0  0  0
   -1.5060   10.4850   15.9410 C   0  0  0  0  0  0  0  0  0  0  0  0
   -1.3510   10.7540   14.5920 C   0  0  0  0  0  0  0  0  0  0  0  0
   -1.5480   11.9890   14.0700 N   0  0  0  0  0  0  0  0  0  0  0  0
   -1.9050   12.9540   14.9390 C   0  0  0  0  0  0  0  0  0  0  0  0
   -2.1230   14.2450   14.4740 C   0  0  0  0  0  0  0  0  0  0  0  0
   -2.4950   15.2750   15.3400 C   0  0  0  0  0  0  0  0  0  0  0  0
   -2.6520   15.0090   16.6930 C   0  0  0  0  0  0  0  0  0  0  0  0
   -2.4360   13.7160   17.1730 C   0  0  0  0  0  0  0  0  0  0  0  0
   -2.0660   12.6820   16.3230 C   0  0  0  0  0  0  0  0  0  0  0  0
   -1.8670   11.4480   16.8300 N   0  0  0  0  0  0  0  0  0  0  0  0
  1  2  1  0
  2  3  1  0
  3  4  2  0
  5  4  1  0
  6  5  2  0
  7  6  1  0
  8  9  2  0
  8  7  1  0
  9 10  1  0
 10  2  2  0
 10  6  1  0
 11  8  1  0
 11 20  2  0
 12 11  1  0
 13 12  2  0
 13 14  1  0
 14 19  1  0
 15 14  2  0
 15 16  1  0
 16 17  2  0
 17 18  1  0
 19 20  1  0
 19 18  2  0
M  END
$$$$
