lig_093
     RDKit          3D

 35 39  0  0  1  0  0  0  0  0999 V2000
   -2.0650    8.7440   16.2620 C   0  0  0  0  0  0  0  0  0  0  0  0
   -2.9890    7.7380   16.2290 N   0  0  0  0  0  0  0  0  0  0  0  0
   -2.6560    6.5910   16.8790 C   0  0  0  0  0  0  0  0  0  0  0  0
   -1.4070    6.4520   17.5120 C   0  0  0  0  0  0  0  0  0  0  0  0
   -0.5090    7.4810   17.5410 N   0  0  0  0  0  0  0  0  0  0  0  0
   -0.8330    8.6330   16.9170 C   0  0  0  0  0  0  0  0  0  0  0  0
    0.1260    9.6570   16.9800 N   0  0  0  0  0  0  0  0  0  0  0  0
   -3.7280    5.5780   16.8580 C   0  0  0  0  0  0  0  0  0  0  0  0
   -3.5170    4.2760   16.3930 C   0  0  0  0  0  0  0  0  0  0  0  0
   -4.5580    3.3330   16.3960 C   0  0  0  0  0  0  0  0  0  0  0  0
   -4.1900    1.7520   15.7810 Cl  0  0  0  0  0  0  0  0  0  0  0  0
   -5.8410    3.6320   16.8700 C   0  0  0  0  0  0  0  0  0  0  0  0
   -6.8470    2.7230   16.8720 N   0  0  0  0  0  0  0  0  0  0  0  0
   -8.0550    3.0820   17.3530 C   0  0  0  0  0  0  0  0  0  0  0  0
   -8.3370    4.3360   17.8520 C   0  0  0  0  0  0  0  0  0  0  0  0
   -7.3160    5.2770   17.8550 C   0  0  0  0  0  0  0  0  0  0  0  0
   -6.0480    4.9390   17.3600 C   0  0  0  0  0  0  0  0  0  0  0  0
   -5.0060    5.8850   17.3540 C   0  0  0  0  0  0  0  0  0  0  0  0
   -0.9280    5.2240   18.1720 C   0  0  0  0  0  0  0  0  0  0  0  0
   -1.8420    4.2380   18.5860 C   0  0  0  0  0  0  0  0  0  0  0  0
   -1.4070    3.0590   19.1970 C   0  0  0  0  0  0  0  0  0  0  0  0
   -0.0480    2.8500   19.4160 C   0  0  0  0  0  0  0  0  0  0  0  0
    0.8740    3.8210   19.0350 C   0  0  0  0  0  0  0  0  0  0  0  0
    0.4380    5.0000   18.4260 C   0  0  0  0  0  0  0  0  0  0  0  0
   -3.5460   10.6400   16.0760 N   0  0  0  0  0  0  0  0  0  0  0  0
   -2.4640    9.9920   15.5340 C   0  0  0  0  0  0  0  0  0  0  0  0
   -1.8670   10.3890   14.5380 O   0  0  0  0  0  0  0  0  0  0  0  0
   -5.6220   11.9390   15.9210 C   0  0  0  0  0  0  0  0  0  0  0  0
   -4.1490   11.8410   15.5230 C   0  0  1  0  0  0  0  0  0  0  0  0
   -3.3930   13.0700   16.0080 C   0  0  0  0  0  0  0  0  0  0  0  0
   -2.7710   13.0640   17.2550 C   0  0  0  0  0  0  0  0  0  0  0  0
   -2.0830   14.2020   17.6680 C   0  0  0  0  0  0  0  0  0  0  0  0
   -2.0330   15.3100   16.8310 C   0  0  0  0  0  0  0  0  0  0  0  0
   -2.6720   15.2370   15.6060 C   0  0  0  0  0  0  0  0  0  0  0  0
   -3.3440   14.1470   15.1730 N   0  0  0  0  0  0  0  0  0  0  0  0
  1  6  1  0
  2  1  2  0
  2  3  1  0
  3  4  2  0
  4  5  1  0
  4 19  1  0
  6  7  1  0
  6  5  2  0
  8  3  1  0
  8 18  2  0
  9 10  2  0
  9  8  1  0
 10 12  1  0
 11 10  1  0
 12 13  2  0
 12 17  1  0
 13 14  1  0
 14 15  2  0
 15 16  1  0
 17 16  2  0
 18 17  1  0
 19 24  1  0
 19 20  2  0
 20 21  1  0
 21 22  2  0
 23 22  1  0
 24 23  2  0
 26 25  1  0
 26  1  1  0
 27 26  2  0
 29 28  1  1
 29 30  1  0
 29 25  1  0
 30 31  2  0
 31 32  1  0
 33 32  2  0
 34 33  1  0
 35 34  2  0
 35 30  1  0
M  END
$$$$
