lig_021
     RDKit          3D

 25 28  0  0  0  0  0  0  0  0999 V2000
  179.0450  163.4250  137.1220 N   0  0  0  0  0  0  0  0  0  0  0  0
  179.9370  162.4100  136.9120 C   0  0  0  0  0  0  0  0  0  0  0  0
  179.7900  161.9450  135.6200 C   0  0  0  0  0  0  0  0  0  0  0  0
  178.7500  162.7060  135.0160 C   0  0  0  0  0  0  0  0  0  0  0  0
  178.1480  162.6940  133.7430 C   0  0  0  0  0  0  0  0  0  0  0  0
  177.1230  163.5970  133.4720 C   0  0  0  0  0  0  0  0  0  0  0  0
  176.5480  163.5890  132.2620 F   0  0  0  0  0  0  0  0  0  0  0  0
  176.6830  164.5050  134.4240 C   0  0  0  0  0  0  0  0  0  0  0  0
  177.2620  164.5370  135.6940 C   0  0  0  0  0  0  0  0  0  0  0  0
  178.2980  163.6270  135.9720 C   0  0  0  0  0  0  0  0  0  0  0  0
  180.6000  160.8190  135.0540 C   0  0  0  0  0  0  0  0  0  0  0  0
  181.8410  160.5880  135.8350 N   0  0  0  0  0  0  0  0  0  0  0  0
  182.8850  161.5470  135.4790 C   0  0  0  0  0  0  0  0  0  0  0  0
  181.5680  160.5810  137.2930 C   0  0  0  0  0  0  0  0  0  0  0  0
  180.9510  161.8820  137.8700 C   0  0  0  0  0  0  0  0  0  0  0  0
  178.9020  164.1820  138.3560 C   0  0  0  0  0  0  0  0  0  0  0  0
  180.0940  165.1040  138.5980 C   0  0  0  0  0  0  0  0  0  0  0  0
  178.8860  169.2540  138.4740 C   0  0  0  0  0  0  0  0  0  0  0  0
  179.7010  168.7890  139.5050 C   0  0  0  0  0  0  0  0  0  0  0  0
  180.0970  167.4470  139.5410 C   0  0  0  0  0  0  0  0  0  0  0  0
  179.6860  166.5550  138.5430 C   0  0  0  0  0  0  0  0  0  0  0  0
  178.8660  167.0250  137.5110 C   0  0  0  0  0  0  0  0  0  0  0  0
  178.4730  168.3640  137.4800 C   0  0  0  0  0  0  0  0  0  0  0  0
  179.0520  171.5370  139.1110 C   0  0  0  0  0  0  0  0  0  0  0  0
  178.4280  170.5330  138.3210 O   0  0  0  0  0  0  0  0  0  0  0  0
  1 16  1  0
  2  1  1  0
  2 15  1  0
  3  2  2  0
  4  3  1  0
  4 10  2  0
  5  4  1  0
  6  5  2  0
  6  8  1  0
  7  6  1  0
  8  9  2  0
  9 10  1  0
 10  1  1  0
 11  3  1  0
 11 12  1  0
 12 14  1  0
 13 12  1  0
 14 15  1  0
 16 17  1  0
 18 19  1  0
 19 20  2  0
 21 17  1  0
 21 20  1  0
 22 21  2  0
 23 22  1  0
 23 18  2  0
 25 18  1  0
 25 24  1  0
M  END
$$$$
