lig_022
     RDKit          3D

 31 35  0  0  1  0  0  0  0  0999 V2000
  126.5080  136.3870  108.0420 C   0  0  0  0  0  0  0  0  0  0  0  0
  127.0290  137.2590  106.9720 N   0  0  0  0  0  0  0  0  0  0  0  0
  126.9190  138.6730  107.3850 C   0  0  0  0  0  0  0  0  0  0  0  0
  126.8930  139.6540  106.2160 C   0  0  0  0  0  0  0  0  0  0  0  0
  125.6400  139.4030  105.3630 C   0  0  2  0  0  0  0  0  0  0  0  0
  125.3200  137.8970  105.2450 C   0  0  0  0  0  0  0  0  0  0  0  0
  126.5330  137.0140  105.5990 C   0  0  2  0  0  0  0  0  0  0  0  0
  126.2430  135.5580  105.2210 C   0  0  0  0  0  0  0  0  0  0  0  0
  125.7350  140.1050  104.0150 C   0  0  0  0  0  0  0  0  0  0  0  0
  126.8560  140.9090  103.7350 C   0  0  0  0  0  0  0  0  0  0  0  0
  126.9980  141.5810  102.5090 C   0  0  0  0  0  0  0  0  0  0  0  0
  125.9920  141.4360  101.5410 C   0  0  0  0  0  0  0  0  0  0  0  0
  125.7650  141.9260  100.2270 C   0  0  0  0  0  0  0  0  0  0  0  0
  124.5620  141.3960   99.8180 C   0  0  0  0  0  0  0  0  0  0  0  0
  124.0290  140.6110  100.7900 O   0  0  0  0  0  0  0  0  0  0  0  0
  124.8970  140.6350  101.8390 C   0  0  0  0  0  0  0  0  0  0  0  0
  124.7270  139.9580  103.0450 C   0  0  0  0  0  0  0  0  0  0  0  0
  125.6780  137.0870  109.1380 C   0  0  2  0  0  0  0  0  0  0  0  0
  126.2030  136.6900  110.4190 O   0  0  0  0  0  0  0  0  0  0  0  0
  124.1920  136.7150  109.0720 C   0  0  0  0  0  0  0  0  0  0  0  0
  123.4840  137.6510  109.8980 O   0  0  0  0  0  0  0  0  0  0  0  0
  124.7130  141.5480  113.7700 C   0  0  0  0  0  0  0  0  0  0  0  0
  124.3590  141.0790  112.4090 C   0  0  0  0  0  0  0  0  0  0  0  0
  124.1380  139.8100  111.9180 C   0  0  0  0  0  0  0  0  0  0  0  0
  123.8270  139.9130  110.5300 C   0  0  0  0  0  0  0  0  0  0  0  0
  123.5130  138.9680  109.5240 C   0  0  0  0  0  0  0  0  0  0  0  0
  123.2610  139.4450  108.2280 C   0  0  0  0  0  0  0  0  0  0  0  0
  123.3120  140.8110  107.9360 C   0  0  0  0  0  0  0  0  0  0  0  0
  123.6170  141.7510  108.9230 C   0  0  0  0  0  0  0  0  0  0  0  0
  123.8700  141.2690  110.2100 C   0  0  0  0  0  0  0  0  0  0  0  0
  124.1920  141.9520  111.3620 N   0  0  0  0  0  0  0  0  0  0  0  0
  2  3  1  0
  2  1  1  0
  4  3  1  0
  5  9  1  6
  5  4  1  0
  6  5  1  0
  6  7  1  0
  7  8  1  1
  7  2  1  0
 10  9  2  0
 11 10  1  0
 12 16  1  0
 12 11  2  0
 13 12  1  0
 14 13  2  0
 14 15  1  0
 15 16  1  0
 16 17  2  0
 17  9  1  0
 18  1  1  0
 18 19  1  1
 20 18  1  0
 20 21  1  0
 23 22  1  0
 24 23  2  0
 25 24  1  0
 26 21  1  0
 26 25  2  0
 27 26  1  0
 28 27  2  0
 28 29  1  0
 29 30  2  0
 30 25  1  0
 30 31  1  0
 31 23  1  0
M  END
$$$$
