lig_279
     RDKit          3D

 31 34  0  0  0  0  0  0  0  0999 V2000
   -2.1650    6.1730   16.9310 C   0  0  0  0  0  0  0  0  0  0  0  0
   -2.3770    7.4260   16.3930 C   0  0  0  0  0  0  0  0  0  0  0  0
   -1.3790    8.3550   16.6000 C   0  0  0  0  0  0  0  0  0  0  0  0
   -0.2700    8.0680   17.3100 N   0  0  0  0  0  0  0  0  0  0  0  0
   -0.1480    6.8260   17.7780 C   0  0  0  0  0  0  0  0  0  0  0  0
    0.9860    6.5240   18.4980 N   0  0  0  0  0  0  0  0  0  0  0  0
   -1.0600    5.8670   17.6380 N   0  0  0  0  0  0  0  0  0  0  0  0
   -5.0690    6.6070   17.5230 C   0  0  0  0  0  0  0  0  0  0  0  0
   -4.5310    5.2610   17.0900 C   0  0  0  0  0  0  0  0  0  0  0  0
   -5.3960    4.1450   17.0000 C   0  0  0  0  0  0  0  0  0  0  0  0
   -4.9080    2.9000   16.5800 C   0  0  0  0  0  0  0  0  0  0  0  0
   -3.5670    2.7430   16.2520 C   0  0  0  0  0  0  0  0  0  0  0  0
   -2.7010    3.8290   16.3630 C   0  0  0  0  0  0  0  0  0  0  0  0
   -3.1520    5.0910   16.7980 C   0  0  0  0  0  0  0  0  0  0  0  0
   -6.7900    4.2390   17.3370 C   0  0  0  0  0  0  0  0  0  0  0  0
   -7.9140    4.3140   17.6170 N   0  0  0  0  0  0  0  0  0  0  0  0
   -1.4750    9.7500   16.0990 C   0  0  0  0  0  0  0  0  0  0  0  0
   -2.7520   10.3640   15.7690 C   0  0  0  0  0  0  0  0  0  0  0  0
   -2.8220   11.6260   15.3340 C   0  0  0  0  0  0  0  0  0  0  0  0
   -1.6830   12.3960   15.1860 N   0  0  0  0  0  0  0  0  0  0  0  0
   -0.4210   11.9060   15.5040 C   0  0  0  0  0  0  0  0  0  0  0  0
    0.6270   12.5400   15.4080 O   0  0  0  0  0  0  0  0  0  0  0  0
   -0.3630   10.5010   15.9900 C   0  0  0  0  0  0  0  0  0  0  0  0
   -1.8040   13.7780   14.7260 C   0  0  0  0  0  0  0  0  0  0  0  0
   -1.9230   14.7600   15.8690 C   0  0  0  0  0  0  0  0  0  0  0  0
   -1.8520   14.3160   17.2000 C   0  0  0  0  0  0  0  0  0  0  0  0
   -1.9780   15.2160   18.2610 C   0  0  0  0  0  0  0  0  0  0  0  0
   -2.1770   16.5710   18.0040 C   0  0  0  0  0  0  0  0  0  0  0  0
   -2.2500   17.0120   16.6890 C   0  0  0  0  0  0  0  0  0  0  0  0
   -2.4440   18.3140   16.4390 F   0  0  0  0  0  0  0  0  0  0  0  0
   -2.1270   16.1250   15.6240 C   0  0  0  0  0  0  0  0  0  0  0  0
  1  7  2  0
  2  3  2  0
  2  1  1  0
  3  4  1  0
  4  5  2  0
  5  6  1  0
  7  5  1  0
  9  8  1  0
 10  9  2  0
 10 15  1  0
 11 10  1  0
 12 13  1  0
 12 11  2  0
 13 14  2  0
 14  1  1  0
 14  9  1  0
 15 16  3  0
 17  3  1  0
 18 17  1  0
 19 18  2  0
 20 19  1  0
 20 21  1  0
 21 23  1  0
 22 21  2  0
 23 17  2  0
 24 20  1  0
 24 25  1  0
 25 26  2  0
 26 27  1  0
 28 27  2  0
 29 28  1  0
 30 29  1  0
 31 25  1  0
 31 29  2  0
M  END
$$$$
