lig_005
     RDKit          3D

 34 38  0  0  0  0  0  0  0  0999 V2000
  179.1730  170.9520  138.8360 N   0  0  0  0  0  0  0  0  0  0  0  0
  179.0740  172.2340  139.2640 C   0  0  0  0  0  0  0  0  0  0  0  0
  180.0050  172.8800  139.9210 N   0  0  0  0  0  0  0  0  0  0  0  0
  179.4870  174.1260  140.1610 C   0  0  0  0  0  0  0  0  0  0  0  0
  180.0510  175.2050  140.8560 C   0  0  0  0  0  0  0  0  0  0  0  0
  179.3180  176.3920  140.9720 C   0  0  0  0  0  0  0  0  0  0  0  0
  178.0480  176.5030  140.4040 C   0  0  0  0  0  0  0  0  0  0  0  0
  177.4690  175.4390  139.7040 C   0  0  0  0  0  0  0  0  0  0  0  0
  178.2180  174.2580  139.6030 C   0  0  0  0  0  0  0  0  0  0  0  0
  177.9940  173.0420  138.9920 N   0  0  0  0  0  0  0  0  0  0  0  0
  179.1050  167.2330  138.6340 N   0  0  0  0  0  0  0  0  0  0  0  0
  180.0960  167.9870  139.4190 C   0  0  0  0  0  0  0  0  0  0  0  0
  179.4200  168.9830  140.3600 C   0  0  0  0  0  0  0  0  0  0  0  0
  178.4610  169.9290  139.6320 C   0  0  0  0  0  0  0  0  0  0  0  0
  177.5240  169.1400  138.7170 C   0  0  0  0  0  0  0  0  0  0  0  0
  178.2780  168.1500  137.8310 C   0  0  0  0  0  0  0  0  0  0  0  0
  179.7500  166.2420  137.7450 C   0  0  0  0  0  0  0  0  0  0  0  0
  179.8430  164.8340  138.3610 C   0  0  0  0  0  0  0  0  0  0  0  0
  178.1320  161.8630  135.7220 C   0  0  0  0  0  0  0  0  0  0  0  0
  179.3850  161.6540  136.2970 C   0  0  0  0  0  0  0  0  0  0  0  0
  179.9350  162.6130  137.1550 C   0  0  0  0  0  0  0  0  0  0  0  0
  179.2370  163.7910  137.4510 C   0  0  0  0  0  0  0  0  0  0  0  0
  177.9830  163.9980  136.8680 C   0  0  0  0  0  0  0  0  0  0  0  0
  177.4370  163.0390  136.0120 C   0  0  0  0  0  0  0  0  0  0  0  0
  178.2390  160.4950  133.7820 C   0  0  0  0  0  0  0  0  0  0  0  0
  177.4830  161.0110  134.8700 O   0  0  0  0  0  0  0  0  0  0  0  0
  176.8330  172.6980  138.1890 C   0  0  0  0  0  0  0  0  0  0  0  0
  177.0530  172.9600  136.7160 C   0  0  0  0  0  0  0  0  0  0  0  0
  177.9630  172.1830  135.9780 C   0  0  0  0  0  0  0  0  0  0  0  0
  178.1560  172.4190  134.6170 C   0  0  0  0  0  0  0  0  0  0  0  0
  177.4380  173.4290  133.9880 C   0  0  0  0  0  0  0  0  0  0  0  0
  177.6220  173.6550  132.6810 F   0  0  0  0  0  0  0  0  0  0  0  0
  176.5280  174.2050  134.6960 C   0  0  0  0  0  0  0  0  0  0  0  0
  176.3330  173.9710  136.0570 C   0  0  0  0  0  0  0  0  0  0  0  0
  1  2  1  0
  1 14  1  0
  2  3  2  0
  3  4  1  0
  4  5  2  0
  5  6  1  0
  7  6  2  0
  8  7  1  0
  9  8  2  0
  9  4  1  0
 10  2  1  0
 10  9  1  0
 11 12  1  0
 12 13  1  0
 14 13  1  0
 15 14  1  0
 16 11  1  0
 16 15  1  0
 17 18  1  0
 17 11  1  0
 19 24  2  0
 19 20  1  0
 20 21  2  0
 21 22  1  0
 22 18  1  0
 23 22  2  0
 24 23  1  0
 25 26  1  0
 26 19  1  0
 27 10  1  0
 28 27  1  0
 29 28  1  0
 30 29  2  0
 31 30  1  0
 31 33  2  0
 32 31  1  0
 33 34  1  0
 34 28  2  0
M  END
$$$$
