lig_074
     RDKit          3D

 26 29  0  0  1  0  0  0  0  0999 V2000
   -2.5280    9.3330   16.0420 C   0  0  0  0  0  0  0  0  0  0  0  0
   -1.4630    8.6850   16.6330 N   0  0  0  0  0  0  0  0  0  0  0  0
   -1.9590    7.4960   16.9050 C   0  0  0  0  0  0  0  0  0  0  0  0
   -1.3980    6.3280   17.5490 C   0  0  0  0  0  0  0  0  0  0  0  0
   -0.0800    6.2950   18.0060 C   0  0  0  0  0  0  0  0  0  0  0  0
    0.4010    5.1440   18.6230 C   0  0  0  0  0  0  0  0  0  0  0  0
   -0.4300    4.0310   18.7850 C   0  0  0  0  0  0  0  0  0  0  0  0
   -1.7560    4.0530   18.3300 C   0  0  0  0  0  0  0  0  0  0  0  0
   -2.2570    5.2110   17.7020 C   0  0  0  0  0  0  0  0  0  0  0  0
   -3.6110    5.2400   17.2330 N   0  0  0  0  0  0  0  0  0  0  0  0
   -4.0720    6.3060   16.6390 C   0  0  0  0  0  0  0  0  0  0  0  0
   -5.3630    6.3600   16.1760 N   0  0  0  0  0  0  0  0  0  0  0  0
   -3.2520    7.4350   16.4820 N   0  0  0  0  0  0  0  0  0  0  0  0
   -3.6540    8.6070   15.9380 N   0  0  0  0  0  0  0  0  0  0  0  0
   -1.4140   12.9910   16.2410 N   0  0  0  0  0  0  0  0  0  0  0  0
   -1.9160   13.3620   14.9170 C   0  0  0  0  0  0  0  0  0  0  0  0
   -1.4520   12.3450   13.8670 C   0  0  0  0  0  0  0  0  0  0  0  0
   -1.4820   10.8950   14.3600 C   0  0  0  0  0  0  0  0  0  0  0  0
   -2.4130   10.7450   15.5650 C   0  0  2  0  0  0  0  0  0  0  0  0
   -1.9770   11.7000   16.7010 C   0  0  0  0  0  0  0  0  0  0  0  0
   -1.6250   14.0710   17.2210 C   0  0  0  0  0  0  0  0  0  0  0  0
   -0.7790   15.3310   16.9570 C   0  0  0  0  0  0  0  0  0  0  0  0
    1.2910   15.3850   15.7900 C   0  0  0  0  0  0  0  0  0  0  0  0
    0.6220   15.0350   16.9930 O   0  0  0  0  0  0  0  0  0  0  0  0
   -2.6360    3.0050   18.4540 O   0  0  0  0  0  0  0  0  0  0  0  0
   -2.6060    1.9960   17.4560 C   0  0  0  0  0  0  0  0  0  0  0  0
  1  2  1  0
  2  3  2  0
  3  4  1  0
  4  9  1  0
  4  5  2  0
  5  6  1  0
  6  7  2  0
  8 25  1  0
  8  7  1  0
  9  8  2  0
 10  9  1  0
 11 10  2  0
 12 11  1  0
 13 11  1  0
 13  3  1  0
 14  1  2  0
 14 13  1  0
 15 20  1  0
 15 21  1  0
 16 15  1  0
 17 18  1  0
 17 16  1  0
 18 19  1  0
 19  1  1  1
 19 20  1  0
 22 24  1  0
 22 21  1  0
 23 24  1  0
 26 25  1  0
M  END
$$$$
