lig_037
     RDKit          3D

 25 29  0  0  1  0  0  0  0  0999 V2000
   -1.5270    5.3520   17.8720 C   0  0  0  0  0  0  0  0  0  0  0  0
   -0.2080    5.2180   18.3290 C   0  0  0  0  0  0  0  0  0  0  0  0
    0.7100    6.2620   18.1790 C   0  0  0  0  0  0  0  0  0  0  0  0
    0.3260    7.4530   17.5700 C   0  0  0  0  0  0  0  0  0  0  0  0
   -0.9840    7.5970   17.1120 C   0  0  0  0  0  0  0  0  0  0  0  0
   -1.9320    6.5530   17.2540 C   0  0  0  0  0  0  0  0  0  0  0  0
   -3.2780    6.6970   16.7860 N   0  0  0  0  0  0  0  0  0  0  0  0
   -3.6570    7.8130   16.2250 C   0  0  0  0  0  0  0  0  0  0  0  0
   -4.9410    7.9800   15.7700 N   0  0  0  0  0  0  0  0  0  0  0  0
   -2.7400    8.8640   16.0590 N   0  0  0  0  0  0  0  0  0  0  0  0
   -3.0170   10.0330   15.4350 N   0  0  0  0  0  0  0  0  0  0  0  0
   -1.8320   10.6570   15.5340 C   0  0  0  0  0  0  0  0  0  0  0  0
   -0.8360    9.9340   16.1570 N   0  0  0  0  0  0  0  0  0  0  0  0
   -1.4410    8.8080   16.4670 C   0  0  0  0  0  0  0  0  0  0  0  0
   -1.5860   12.0380   15.0090 C   0  0  2  0  0  0  0  0  0  0  0  0
   -0.0840   12.3850   14.9560 C   0  0  0  0  0  0  0  0  0  0  0  0
    0.2790   13.4580   15.9750 C   0  0  0  0  0  0  0  0  0  0  0  0
   -0.5700   14.7190   15.7750 C   0  0  0  0  0  0  0  0  0  0  0  0
   -2.0030   14.4750   15.5400 N   0  0  0  0  0  0  0  0  0  0  0  0
   -2.3910   13.0810   15.8120 C   0  0  0  0  0  0  0  0  0  0  0  0
   -2.4600   14.9570   14.2260 C   0  0  0  0  0  0  0  0  0  0  0  0
   -3.4640   16.0770   14.1730 C   0  0  0  0  0  0  0  0  0  0  0  0
   -3.8760   14.6850   13.7970 C   0  0  0  0  0  0  0  0  0  0  0  0
   -2.2550    3.3160   18.8930 C   0  0  0  0  0  0  0  0  0  0  0  0
   -2.4870    4.3760   17.9760 O   0  0  0  0  0  0  0  0  0  0  0  0
  1 25  1  0
  1  2  1  0
  3  2  2  0
  4  3  1  0
  5  6  1  0
  5  4  2  0
  6  1  2  0
  7  6  1  0
  8  7  2  0
  9  8  1  0
 10  8  1  0
 10 14  1  0
 11 12  2  0
 11 10  1  0
 12 13  1  0
 13 14  2  0
 14  5  1  0
 15 12  1  1
 15 20  1  0
 16 15  1  0
 16 17  1  0
 18 17  1  0
 19 21  1  0
 19 18  1  0
 19 20  1  0
 22 21  1  0
 23 22  1  0
 23 21  1  0
 25 24  1  0
M  END
$$$$
