lig_013
     RDKit          3D

 28 31  0  0  0  0  0  0  0  0999 V2000
  183.9360  169.7950  173.6610 O   0  0  0  0  0  0  0  0  0  0  0  0
  184.7030  168.9150  173.2620 C   0  0  0  0  0  0  0  0  0  0  0  0
  185.9380  169.2470  172.6510 N   0  0  0  0  0  0  0  0  0  0  0  0
  186.4830  168.4770  171.5680 C   0  0  0  0  0  0  0  0  0  0  0  0
  185.8630  168.4870  170.3100 C   0  0  0  0  0  0  0  0  0  0  0  0
  186.3830  167.7400  169.2500 C   0  0  0  0  0  0  0  0  0  0  0  0
  187.5260  166.9680  169.4340 C   0  0  0  0  0  0  0  0  0  0  0  0
  188.1510  166.9410  170.6790 C   0  0  0  0  0  0  0  0  0  0  0  0
  187.6310  167.6900  171.7400 C   0  0  0  0  0  0  0  0  0  0  0  0
  186.4380  170.6430  172.7770 C   0  0  0  0  0  0  0  0  0  0  0  0
  185.4010  171.6930  172.3320 C   0  0  0  0  0  0  0  0  0  0  0  0
  185.4650  172.9690  173.1730 C   0  0  0  0  0  0  0  0  0  0  0  0
  186.8600  173.3330  173.4050 N   0  0  0  0  0  0  0  0  0  0  0  0
  187.5780  172.3630  174.2400 C   0  0  0  0  0  0  0  0  0  0  0  0
  186.9950  170.9470  174.1760 C   0  0  0  0  0  0  0  0  0  0  0  0
  187.0510  174.7240  173.8420 C   0  0  0  0  0  0  0  0  0  0  0  0
  185.9730  175.7340  173.4090 C   0  0  0  0  0  0  0  0  0  0  0  0
  186.3650  176.4530  172.1390 C   0  0  0  0  0  0  0  0  0  0  0  0
  187.1390  177.6200  172.1930 C   0  0  0  0  0  0  0  0  0  0  0  0
  187.5160  178.2730  171.0180 C   0  0  0  0  0  0  0  0  0  0  0  0
  187.1280  177.7630  169.7810 C   0  0  0  0  0  0  0  0  0  0  0  0
  186.3630  176.6010  169.7160 C   0  0  0  0  0  0  0  0  0  0  0  0
  185.9850  175.9460  170.8890 C   0  0  0  0  0  0  0  0  0  0  0  0
  184.4220  167.4950  173.4920 C   0  0  0  0  0  0  0  0  0  0  0  0
  184.4320  166.4310  172.6080 C   0  0  0  0  0  0  0  0  0  0  0  0
  184.1100  165.1910  173.2360 C   0  0  0  0  0  0  0  0  0  0  0  0
  183.8850  165.3420  174.5840 C   0  0  0  0  0  0  0  0  0  0  0  0
  184.0680  166.9650  175.0880 S   0  0  0  0  0  0  0  0  0  0  0  0
  2 24  1  0
  2  1  2  0
  3 10  1  0
  3  2  1  0
  4  9  1  0
  4  3  1  0
  5  4  2  0
  6  7  2  0
  6  5  1  0
  7  8  1  0
  8  9  2  0
 10 15  1  0
 11 10  1  0
 11 12  1  0
 12 13  1  0
 13 16  1  0
 13 14  1  0
 15 14  1  0
 17 16  1  0
 18 19  2  0
 18 17  1  0
 20 19  1  0
 21 20  2  0
 22 21  1  0
 22 23  2  0
 23 18  1  0
 24 28  1  0
 25 26  1  0
 25 24  2  0
 26 27  2  0
 27 28  1  0
M  END
$$$$
