lig_093
     RDKit          3D

 32 35  0  0  1  0  0  0  0  0999 V2000
  -26.2490    4.8300    9.2990 C   0  0  0  0  0  0  0  0  0  0  0  0
  -27.0720    3.7140    9.1690 C   0  0  0  0  0  0  0  0  0  0  0  0
  -26.6580    2.4780    9.6690 C   0  0  0  0  0  0  0  0  0  0  0  0
  -25.4170    2.3490   10.3060 C   0  0  0  0  0  0  0  0  0  0  0  0
  -24.5950    3.4780   10.4310 C   0  0  0  0  0  0  0  0  0  0  0  0
  -25.0100    4.7130    9.9290 C   0  0  0  0  0  0  0  0  0  0  0  0
  -26.6720    6.1050    8.8340 N   0  0  0  0  0  0  0  0  0  0  0  0
  -26.0520    5.8330    6.3570 O   0  0  0  0  0  0  0  0  0  0  0  0
  -25.9420    6.7650    7.4590 S   0  0  0  0  0  0  0  0  0  0  0  0
  -24.6540    7.2650    7.8920 O   0  0  0  0  0  0  0  0  0  0  0  0
  -26.9690    8.1720    7.1010 C   0  0  0  0  0  0  0  0  0  0  0  0
  -28.3080    8.1730    7.4900 C   0  0  0  0  0  0  0  0  0  0  0  0
  -29.1040    9.2830    7.2070 C   0  0  0  0  0  0  0  0  0  0  0  0
  -28.5750   10.3910    6.5250 C   0  0  0  0  0  0  0  0  0  0  0  0
  -29.3650   11.5140    6.2370 C   0  0  0  0  0  0  0  0  0  0  0  0
  -28.8290   12.6060    5.5520 C   0  0  0  0  0  0  0  0  0  0  0  0
  -27.4990   12.5900    5.1440 C   0  0  0  0  0  0  0  0  0  0  0  0
  -26.6980   11.4810    5.4230 C   0  0  0  0  0  0  0  0  0  0  0  0
  -27.2190   10.3750    6.1140 C   0  0  0  0  0  0  0  0  0  0  0  0
  -26.4250    9.2560    6.4020 C   0  0  0  0  0  0  0  0  0  0  0  0
  -24.9600    1.0040   10.8270 C   0  0  0  0  0  0  0  0  0  0  0  0
  -25.8740   -0.1520   10.3860 C   0  0  0  0  0  0  0  0  0  0  0  0
  -26.0300   -1.1500   11.4440 N   0  0  0  0  0  0  0  0  0  0  0  0
  -27.3790   -1.1840   12.0320 C   0  0  0  0  0  0  0  0  0  0  0  0
  -28.1190    0.1780   12.0860 C   0  0  1  0  0  0  0  0  0  0  0  0
  -29.4690    0.0940   11.4200 C   0  0  0  0  0  0  0  0  0  0  0  0
  -29.6210   -0.5240   10.1740 C   0  0  0  0  0  0  0  0  0  0  0  0
  -30.8830   -0.6190    9.5940 C   0  0  0  0  0  0  0  0  0  0  0  0
  -31.9620   -0.0960   10.2860 C   0  0  0  0  0  0  0  0  0  0  0  0
  -31.8620    0.5010   11.4900 N   0  0  0  0  0  0  0  0  0  0  0  0
  -30.6210    0.5850   12.0280 C   0  0  0  0  0  0  0  0  0  0  0  0
  -28.2710    0.6030   13.4440 O   0  0  0  0  0  0  0  0  0  0  0  0
  1  6  2  0
  2  1  1  0
  2  3  2  0
  3  4  1  0
  4  5  2  0
  4 21  1  0
  6  5  1  0
  7  1  1  0
  8  9  2  0
  9 10  2  0
  9  7  1  0
 11  9  1  0
 11 12  1  0
 13 12  2  0
 14 13  1  0
 15 14  2  0
 16 15  1  0
 17 18  1  0
 17 16  2  0
 18 19  2  0
 19 20  1  0
 19 14  1  0
 20 11  2  0
 22 21  1  0
 22 23  1  0
 23 24  1  0
 25 24  1  0
 25 32  1  1
 26 31  1  0
 26 25  1  0
 27 26  2  0
 28 27  1  0
 28 29  2  0
 29 30  1  0
 30 31  2  0
M  END
$$$$
