lig_000
     RDKit          3D

 24 28  0  0  1  0  0  0  0  0999 V2000
  186.5010  174.1820  174.5670 C   0  0  2  0  0  0  0  0  0  0  0  0
  185.9750  175.5230  175.1610 C   0  0  0  0  0  0  0  0  0  0  0  0
  187.0390  176.5760  175.4550 C   0  0  0  0  0  0  0  0  0  0  0  0
  188.4230  175.9970  175.5910 C   0  0  0  0  0  0  0  0  0  0  0  0
  189.0990  176.2590  176.5900 O   0  0  0  0  0  0  0  0  0  0  0  0
  188.9520  175.1550  174.4080 C   0  0  2  0  0  0  0  0  0  0  0  0
  190.1360  174.3190  174.9090 C   0  0  0  0  0  0  0  0  0  0  0  0
  189.4990  176.0630  173.3920 O   0  0  0  0  0  0  0  0  0  0  0  0
  188.5330  176.1650  172.4250 C   0  0  0  0  0  0  0  0  0  0  0  0
  188.4750  177.0890  171.4050 C   0  0  0  0  0  0  0  0  0  0  0  0
  187.3320  177.1230  170.5970 C   0  0  0  0  0  0  0  0  0  0  0  0
  186.2490  176.2570  170.8520 C   0  0  0  0  0  0  0  0  0  0  0  0
  186.3200  175.3240  171.8870 C   0  0  0  0  0  0  0  0  0  0  0  0
  187.5040  175.2680  172.6050 C   0  0  0  0  0  0  0  0  0  0  0  0
  187.8000  174.3470  173.7390 C   0  0  2  0  0  0  0  0  0  0  0  0
  188.2620  172.9720  173.1790 C   0  0  0  0  0  0  0  0  0  0  0  0
  187.1740  172.2010  172.4250 C   0  0  0  0  0  0  0  0  0  0  0  0
  185.9140  172.1770  173.1690 N   0  0  0  0  0  0  0  0  0  0  0  0
  184.9030  171.3780  172.4860 C   0  0  0  0  0  0  0  0  0  0  0  0
  185.4490  173.5330  173.5610 C   0  0  2  0  0  0  0  0  0  0  0  0
  185.1530  174.4750  172.3300 C   0  0  0  0  0  0  0  0  0  0  0  0
  185.9170  173.2020  176.7310 C   0  0  0  0  0  0  0  0  0  0  0  0
  186.8720  173.3490  175.6900 O   0  0  0  0  0  0  0  0  0  0  0  0
  189.5010  177.9640  171.2230 O   0  0  0  0  0  0  0  0  0  0  0  0
  1  2  1  0
  1 23  1  1
  2  3  1  0
  3  4  1  0
  4  5  2  0
  6  7  1  1
  6  4  1  0
  8  6  1  0
  9 14  1  0
  9  8  1  0
 10  9  2  0
 11 12  2  0
 11 10  1  0
 12 13  1  0
 13 21  1  0
 13 14  2  0
 14 15  1  0
 15 16  1  6
 15  6  1  0
 15  1  1  0
 17 18  1  0
 17 16  1  0
 18 20  1  0
 19 18  1  0
 20 21  1  6
 20  1  1  0
 23 22  1  0
 24 10  1  0
M  END
$$$$
