lig_111
     RDKit          3D

 30 31  0  0  1  0  0  0  0  0999 V2000
   -0.2340  -19.8920   14.8500 N   0  0  0  0  0  0  0  0  0  0  0  0
    0.4600  -18.7520   14.5150 C   0  0  0  0  0  0  0  0  0  0  0  0
    1.2320  -18.1960   15.2920 O   0  0  0  0  0  0  0  0  0  0  0  0
    0.2150  -18.1770   13.1560 C   0  0  0  0  0  0  0  0  0  0  0  0
    0.2800  -16.7800   13.0390 C   0  0  0  0  0  0  0  0  0  0  0  0
    0.0460  -16.1390   11.8140 C   0  0  0  0  0  0  0  0  0  0  0  0
   -0.2650  -16.9170   10.6900 C   0  0  0  0  0  0  0  0  0  0  0  0
   -0.3400  -18.3110   10.7800 C   0  0  0  0  0  0  0  0  0  0  0  0
   -0.0640  -18.9400   12.0090 C   0  0  0  0  0  0  0  0  0  0  0  0
   -0.6500  -19.1370    9.7290 O   0  0  0  0  0  0  0  0  0  0  0  0
   -1.0990  -18.5140    8.5310 C   0  0  0  0  0  0  0  0  0  0  0  0
   -0.1330  -20.3150   12.0880 O   0  0  0  0  0  0  0  0  0  0  0  0
    1.1530  -20.8840   11.8200 C   0  0  0  0  0  0  0  0  0  0  0  0
    0.1240  -14.6360   11.7160 C   0  0  0  0  0  0  0  0  0  0  0  0
    0.2460  -14.0880   10.2900 C   0  0  0  0  0  0  0  0  0  0  0  0
   -0.3510  -12.7000   10.1230 C   0  0  0  0  0  0  0  0  0  0  0  0
   -0.8400  -12.2660   11.3130 F   0  0  0  0  0  0  0  0  0  0  0  0
   -0.2540  -20.4070   16.2050 C   0  0  0  0  0  0  0  0  0  0  0  0
   -0.5300  -22.6170   17.5440 N   0  0  0  0  0  0  0  0  0  0  0  0
   -1.2760  -23.8620   17.3250 C   0  0  0  0  0  0  0  0  0  0  0  0
   -2.4060  -23.5390   16.3340 C   0  0  1  0  0  0  0  0  0  0  0  0
   -2.0110  -22.1990   15.7110 C   0  0  0  0  0  0  0  0  0  0  0  0
   -0.6100  -21.9070   16.2510 C   0  0  1  0  0  0  0  0  0  0  0  0
   -0.9070  -21.9110   18.7650 C   0  0  0  0  0  0  0  0  0  0  0  0
   -0.0140  -20.3710   20.5440 C   0  0  0  0  0  0  0  0  0  0  0  0
    0.1890  -21.2410   19.5460 C   0  0  0  0  0  0  0  0  0  0  0  0
   -2.5200  -24.5140   15.2940 O   0  0  0  0  0  0  0  0  0  0  0  0
   -3.3460  -24.0670   14.2110 C   0  0  0  0  0  0  0  0  0  0  0  0
   -2.5770  -24.2940   12.9140 C   0  0  0  0  0  0  0  0  0  0  0  0
   -3.4430  -24.8650   11.9350 O   0  0  0  0  0  0  0  0  0  0  0  0
  1 18  1  0
  2  1  1  0
  2  3  2  0
  4  2  1  0
  5  4  2  0
  6  5  1  0
  7  8  1  0
  7  6  2  0
  8  9  2  0
  9 12  1  0
  9  4  1  0
 10  8  1  0
 11 10  1  0
 13 12  1  0
 14  6  1  0
 15 14  1  0
 16 15  1  0
 16 17  1  0
 19 24  1  0
 20 19  1  0
 21 27  1  6
 21 20  1  0
 22 23  1  0
 22 21  1  0
 23 18  1  1
 23 19  1  0
 24 26  1  0
 26 25  2  0
 28 27  1  0
 29 28  1  0
 30 29  1  0
M  END
$$$$
