lig_307
     RDKit          3D

 21 24  0  0  0  0  0  0  0  0999 V2000
   -3.1210    8.0620   16.4100 C   0  0  0  0  0  0  0  0  0  0  0  0
   -4.2360    7.2090   16.4630 C   0  0  0  0  0  0  0  0  0  0  0  0
   -4.1790    5.8950   16.9840 C   0  0  0  0  0  0  0  0  0  0  0  0
   -2.9050    5.5040   17.4050 C   0  0  0  0  0  0  0  0  0  0  0  0
   -2.5290    4.3040   17.9410 O   0  0  0  0  0  0  0  0  0  0  0  0
   -1.1760    4.4220   18.1560 C   0  0  0  0  0  0  0  0  0  0  0  0
   -0.6810    5.5960   17.7960 N   0  0  0  0  0  0  0  0  0  0  0  0
   -1.7680    6.2870   17.3210 C   0  0  0  0  0  0  0  0  0  0  0  0
   -1.8620    7.5810   16.7930 C   0  0  0  0  0  0  0  0  0  0  0  0
   -5.3490    5.0120   17.0620 C   0  0  0  0  0  0  0  0  0  0  0  0
   -5.4150    3.8180   16.3240 C   0  0  0  0  0  0  0  0  0  0  0  0
   -6.5280    2.9750   16.4080 C   0  0  0  0  0  0  0  0  0  0  0  0
   -7.5970    3.3110   17.2320 C   0  0  0  0  0  0  0  0  0  0  0  0
   -7.5560    4.4890   17.9730 C   0  0  0  0  0  0  0  0  0  0  0  0
   -6.4420    5.3300   17.8880 C   0  0  0  0  0  0  0  0  0  0  0  0
   -0.3840    3.3670   18.7200 C   0  0  0  0  0  0  0  0  0  0  0  0
   -0.7900    2.1020   19.1160 C   0  0  0  0  0  0  0  0  0  0  0  0
    0.3520    1.4270   19.6080 C   0  0  0  0  0  0  0  0  0  0  0  0
    1.3940    2.3120   19.4870 C   0  0  0  0  0  0  0  0  0  0  0  0
    0.9650    3.4830   18.9530 O   0  0  0  0  0  0  0  0  0  0  0  0
   -3.2270    9.3080   15.7760 N   0  0  0  0  0  0  0  0  0  0  0  0
  1  2  2  0
  1  9  1  0
  2  3  1  0
  3 10  1  0
  3  4  2  0
  4  5  1  0
  5  6  1  0
  6 16  1  0
  7  6  2  0
  8  4  1  0
  8  7  1  0
  9  8  2  0
 10 15  1  0
 11 12  1  0
 11 10  2  0
 12 13  2  0
 13 14  1  0
 15 14  2  0
 16 20  1  0
 16 17  2  0
 17 18  1  0
 19 18  2  0
 20 19  1  0
 21  1  1  0
M  END
$$$$
