lig_014
     RDKit          3D

 35 39  0  0  0  0  0  0  0  0999 V2000
  125.8780  142.3340  102.1540 N   0  0  0  0  0  0  0  0  0  0  0  0
  127.2310  141.7580  102.1640 C   0  0  0  0  0  0  0  0  0  0  0  0
  127.2560  140.2510  102.4290 C   0  0  0  0  0  0  0  0  0  0  0  0
  126.5290  139.8970  103.7360 C   0  0  0  0  0  0  0  0  0  0  0  0
  125.1250  140.5250  103.7370 C   0  0  0  0  0  0  0  0  0  0  0  0
  125.1780  142.0200  103.4060 C   0  0  0  0  0  0  0  0  0  0  0  0
  125.1300  141.9660  100.9350 C   0  0  0  0  0  0  0  0  0  0  0  0
  123.6420  142.3660  100.9470 C   0  0  0  0  0  0  0  0  0  0  0  0
  122.8240  141.2310  100.6160 O   0  0  0  0  0  0  0  0  0  0  0  0
  121.6210  136.2720  104.6900 C   0  0  0  0  0  0  0  0  0  0  0  0
  121.7330  137.5030  103.8430 C   0  0  0  0  0  0  0  0  0  0  0  0
  122.7300  137.6020  102.8840 C   0  0  0  0  0  0  0  0  0  0  0  0
  122.7990  138.7590  102.1170 C   0  0  0  0  0  0  0  0  0  0  0  0
  121.8730  139.7980  102.3200 C   0  0  0  0  0  0  0  0  0  0  0  0
  121.8840  141.0070  101.5900 C   0  0  0  0  0  0  0  0  0  0  0  0
  120.9110  141.9830  101.7940 C   0  0  0  0  0  0  0  0  0  0  0  0
  119.9420  141.7830  102.7670 C   0  0  0  0  0  0  0  0  0  0  0  0
  119.9450  140.6030  103.5150 C   0  0  0  0  0  0  0  0  0  0  0  0
  120.8880  139.6020  103.3090 C   0  0  0  0  0  0  0  0  0  0  0  0
  120.8240  138.4850  104.0560 N   0  0  0  0  0  0  0  0  0  0  0  0
  126.4850  138.3680  103.9180 C   0  0  0  0  0  0  0  0  0  0  0  0
  126.2410  137.9350  105.3450 C   0  0  0  0  0  0  0  0  0  0  0  0
  126.7860  136.7400  105.8210 C   0  0  0  0  0  0  0  0  0  0  0  0
  126.5820  136.3590  107.1440 C   0  0  0  0  0  0  0  0  0  0  0  0
  125.8370  137.1730  108.0000 C   0  0  0  0  0  0  0  0  0  0  0  0
  125.2430  138.3600  107.5450 C   0  0  0  0  0  0  0  0  0  0  0  0
  125.4720  138.7340  106.2120 C   0  0  0  0  0  0  0  0  0  0  0  0
  124.4290  139.1220  108.4440 N   0  0  0  0  0  0  0  0  0  0  0  0
  124.5040  138.8500  109.8110 C   0  0  0  0  0  0  0  0  0  0  0  0
  123.8970  139.4760  110.6810 O   0  0  0  0  0  0  0  0  0  0  0  0
  125.4860  137.7520  110.2000 C   0  0  0  0  0  0  0  0  0  0  0  0
  125.6950  136.7020  109.2770 O   0  0  0  0  0  0  0  0  0  0  0  0
  123.5590  140.2120  107.9590 C   0  0  0  0  0  0  0  0  0  0  0  0
  124.3280  141.5020  107.6410 C   0  0  0  0  0  0  0  0  0  0  0  0
  122.7090  139.7660  106.7680 C   0  0  0  0  0  0  0  0  0  0  0  0
  1  2  1  0
  1  6  1  0
  2  3  1  0
  3  4  1  0
  4  5  1  0
  4 21  1  0
  6  5  1  0
  7  8  1  0
  7  1  1  0
  9  8  1  0
  9 15  1  0
 11 20  2  0
 11 10  1  0
 12 11  1  0
 13 14  1  0
 13 12  2  0
 14 19  1  0
 15 16  1  0
 15 14  2  0
 16 17  2  0
 17 18  1  0
 19 18  2  0
 19 20  1  0
 21 22  1  0
 22 23  1  0
 22 27  2  0
 23 24  2  0
 24 25  1  0
 25 32  1  0
 26 25  2  0
 26 28  1  0
 27 26  1  0
 28 29  1  0
 29 31  1  0
 29 30  2  0
 32 31  1  0
 33 28  1  0
 34 33  1  0
 35 33  1  0
M  END
$$$$
