lig_022
     RDKit          3D

 22 24  0  0  1  0  0  0  0  0999 V2000
  -12.7800  -15.7220   34.0890 C   0  0  0  0  0  0  0  0  0  0  0  0
  -13.1290  -15.3950   35.5150 C   0  0  0  0  0  0  0  0  0  0  0  0
  -13.9720  -16.1700   36.2230 C   0  0  0  0  0  0  0  0  0  0  0  0
  -12.5350  -14.2330   36.0960 C   0  0  0  0  0  0  0  0  0  0  0  0
  -12.0350  -13.2550   36.5810 C   0  0  0  0  0  0  0  0  0  0  0  0
  -11.4280  -12.0940   37.1550 C   0  0  0  0  0  0  0  0  0  0  0  0
  -12.1950  -10.9480   37.3860 C   0  0  0  0  0  0  0  0  0  0  0  0
  -11.6020   -9.8140   37.9450 C   0  0  0  0  0  0  0  0  0  0  0  0
  -10.2490   -9.8360   38.2670 C   0  0  0  0  0  0  0  0  0  0  0  0
   -9.6820   -8.7480   38.8030 F   0  0  0  0  0  0  0  0  0  0  0  0
   -9.4770  -10.9700   38.0410 C   0  0  0  0  0  0  0  0  0  0  0  0
  -10.0670  -12.1050   37.4810 C   0  0  0  0  0  0  0  0  0  0  0  0
  -14.4150  -15.9800   37.6430 C   0  0  0  0  0  0  0  0  0  0  0  0
  -13.9870  -17.1240   38.3870 O   0  0  0  0  0  0  0  0  0  0  0  0
  -12.6300  -17.3600   38.1180 N   0  0  0  0  0  0  0  0  0  0  0  0
  -11.8910  -16.8310   39.0390 C   0  0  0  0  0  0  0  0  0  0  0  0
  -10.3800  -16.8800   39.0270 C   0  0  0  0  0  0  0  0  0  0  0  0
  -10.0650  -16.0840   40.2590 N   0  0  0  0  0  0  0  0  0  0  0  0
  -10.4050  -14.6530   39.9850 C   0  0  0  0  0  0  0  0  0  0  0  0
  -11.9430  -14.6030   39.9610 C   0  0  0  0  0  0  0  0  0  0  0  0
  -12.3150  -16.0530   40.2530 C   0  0  2  0  0  0  0  0  0  0  0  0
  -11.1810  -16.4810   41.1720 C   0  0  0  0  0  0  0  0  0  0  0  0
  1  2  1  0
  2  4  1  0
  2  3  2  0
  3 13  1  0
  4  5  3  0
  5  6  1  0
  6  7  1  0
  6 12  2  0
  7  8  2  0
  8  9  1  0
  9 10  1  0
 11  9  2  0
 12 11  1  0
 13 14  1  0
 15 14  1  0
 15 16  2  0
 16 21  1  0
 17 16  1  0
 18 17  1  0
 18 22  1  0
 19 18  1  0
 20 19  1  0
 21 20  1  6
 21 22  1  0
M  END
$$$$
