lig_180
     RDKit          3D

 26 29  0  0  1  0  0  0  0  0999 V2000
   -2.2540   10.8320   15.3080 N   0  0  0  0  0  0  0  0  0  0  0  0
   -2.2220    9.5540   15.8520 C   0  0  0  0  0  0  0  0  0  0  0  0
   -3.3420    8.8500   15.7090 N   0  0  0  0  0  0  0  0  0  0  0  0
   -3.4060    7.5860   16.1940 C   0  0  0  0  0  0  0  0  0  0  0  0
   -2.2980    7.0470   16.8360 C   0  0  0  0  0  0  0  0  0  0  0  0
   -2.0260    5.5230   17.5920 S   0  0  0  0  0  0  0  0  0  0  0  0
   -0.4230    5.9270   18.0150 C   0  0  0  0  0  0  0  0  0  0  0  0
   -0.0920    7.1970   17.6050 C   0  0  0  0  0  0  0  0  0  0  0  0
   -1.1670    7.8510   16.9330 C   0  0  0  0  0  0  0  0  0  0  0  0
   -1.1130    9.1060   16.4380 N   0  0  0  0  0  0  0  0  0  0  0  0
   -4.6950    6.8690   15.9960 C   0  0  0  0  0  0  0  0  0  0  0  0
   -5.3590    7.0470   14.9800 O   0  0  0  0  0  0  0  0  0  0  0  0
   -5.0800    5.9820   16.9890 N   0  0  0  0  0  0  0  0  0  0  0  0
   -6.3500    5.2390   16.9200 C   0  0  1  0  0  0  0  0  0  0  0  0
   -6.2120    3.7000   16.9320 C   0  0  0  0  0  0  0  0  0  0  0  0
   -7.4230    3.6570   17.8870 C   0  0  1  0  0  0  0  0  0  0  0  0
   -7.0850    5.1130   18.2730 C   0  0  0  0  0  0  0  0  0  0  0  0
   -8.7110    3.4610   17.2740 O   0  0  0  0  0  0  0  0  0  0  0  0
   -0.0600   11.7760   15.7330 C   0  0  0  0  0  0  0  0  0  0  0  0
   -1.5490   11.8500   16.0870 C   0  0  1  0  0  0  0  0  0  0  0  0
   -2.0850   13.2430   15.7710 C   0  0  0  0  0  0  0  0  0  0  0  0
   -2.1010   14.2310   16.7530 C   0  0  0  0  0  0  0  0  0  0  0  0
   -2.6310   15.4810   16.4410 C   0  0  0  0  0  0  0  0  0  0  0  0
   -3.1340   15.7090   15.1660 C   0  0  0  0  0  0  0  0  0  0  0  0
   -3.0860   14.6750   14.2480 C   0  0  0  0  0  0  0  0  0  0  0  0
   -2.5740   13.4550   14.5180 N   0  0  0  0  0  0  0  0  0  0  0  0
  1  2  1  0
  1 20  1  0
  2 10  1  0
  3  2  2  0
  3  4  1  0
  4  5  2  0
  5  9  1  0
  5  6  1  0
  6  7  1  0
  8  7  2  0
  9  8  1  0
 10  9  2  0
 11  4  1  0
 11 13  1  0
 12 11  2  0
 14 15  1  0
 14 13  1  1
 14 17  1  0
 15 16  1  0
 16 18  1  6
 16 17  1  0
 20 19  1  6
 21 20  1  0
 21 22  2  0
 23 22  1  0
 24 23  2  0
 25 26  2  0
 25 24  1  0
 26 21  1  0
M  END
$$$$
