lig_242
     RDKit          3D

 36 40  0  0  1  0  0  0  0  0999 V2000
    0.3900  -19.0190   12.7260 C   0  0  1  0  0  0  0  0  0  0  0  0
    0.3560  -20.2030   11.7530 C   0  0  0  0  0  0  0  0  0  0  0  0
    0.3300  -21.5430   12.4850 C   0  0  0  0  0  0  0  0  0  0  0  0
    1.5000  -21.6860   13.4730 C   0  0  1  0  0  0  0  0  0  0  0  0
    1.5320  -20.4870   14.4380 C   0  0  0  0  0  0  0  0  0  0  0  0
    1.5660  -19.1550   13.6970 C   0  0  0  0  0  0  0  0  0  0  0  0
    0.0910  -16.5650   12.5740 C   0  0  0  0  0  0  0  0  0  0  0  0
   -0.2810  -16.4530   13.7360 O   0  0  0  0  0  0  0  0  0  0  0  0
    0.4730  -17.7600   12.0010 N   0  0  0  0  0  0  0  0  0  0  0  0
    0.2480  -13.0710   10.1160 C   0  0  0  0  0  0  0  0  0  0  0  0
   -0.5860  -13.1040   11.2370 C   0  0  0  0  0  0  0  0  0  0  0  0
   -0.6280  -14.2560   12.0240 C   0  0  0  0  0  0  0  0  0  0  0  0
    0.1760  -15.3590   11.7070 C   0  0  0  0  0  0  0  0  0  0  0  0
    1.0110  -15.3140   10.5810 C   0  0  0  0  0  0  0  0  0  0  0  0
    1.0530  -14.1650    9.7870 C   0  0  0  0  0  0  0  0  0  0  0  0
    0.9230  -12.1850    7.5620 C   0  0  0  0  0  0  0  0  0  0  0  0
    0.3070  -11.5990    9.1180 S   0  0  0  0  0  0  0  0  0  0  0  0
   -1.0580  -11.1490    8.9300 O   0  0  0  0  0  0  0  0  0  0  0  0
    1.3080  -10.7220    9.6960 O   0  0  0  0  0  0  0  0  0  0  0  0
    1.4360  -22.9990   14.2850 C   0  0  0  0  0  0  0  0  0  0  0  0
    0.1080  -23.7560   14.1230 C   0  0  0  0  0  0  0  0  0  0  0  0
   -0.4950  -24.1270   15.4150 N   0  0  0  0  0  0  0  0  0  0  0  0
   -0.7230  -22.9530   16.2700 C   0  0  0  0  0  0  0  0  0  0  0  0
   -1.8730  -22.0580   15.8050 C   0  0  0  0  0  0  0  0  0  0  0  0
   -3.1800  -22.8260   15.5620 C   0  0  0  0  0  0  0  0  0  0  0  0
   -2.9380  -24.1350   14.7980 C   0  0  0  0  0  0  0  0  0  0  0  0
   -1.7260  -24.9210   15.3050 C   0  0  0  0  0  0  0  0  0  0  0  0
   -4.0020  -23.0110   16.8150 C   0  0  0  0  0  0  0  0  0  0  0  0
   -4.6040  -24.1630   17.2880 C   0  0  0  0  0  0  0  0  0  0  0  0
   -5.2620  -23.9380   18.4520 O   0  0  0  0  0  0  0  0  0  0  0  0
   -5.0940  -22.6240   18.7560 C   0  0  0  0  0  0  0  0  0  0  0  0
   -5.6140  -21.9840   19.8790 C   0  0  0  0  0  0  0  0  0  0  0  0
   -5.3270  -20.6220   20.0110 C   0  0  0  0  0  0  0  0  0  0  0  0
   -4.5580  -19.9530   19.0560 C   0  0  0  0  0  0  0  0  0  0  0  0
   -4.0490  -20.6260   17.9360 C   0  0  0  0  0  0  0  0  0  0  0  0
   -4.3250  -21.9990   17.7820 C   0  0  0  0  0  0  0  0  0  0  0  0
  1  9  1  6
  1  6  1  0
  2  3  1  0
  2  1  1  0
  3  4  1  0
  4 20  1  1
  4  5  1  0
  6  5  1  0
  7  8  2  0
  9  7  1  0
 10 11  1  0
 11 12  2  0
 13 12  1  0
 13  7  1  0
 14 13  2  0
 15 10  2  0
 15 14  1  0
 16 17  1  0
 17 19  2  0
 17 10  1  0
 18 17  2  0
 21 20  1  0
 21 22  1  0
 22 23  1  0
 24 23  1  0
 25 24  1  0
 25 28  1  0
 26 27  1  0
 26 25  1  0
 27 22  1  0
 28 29  2  0
 28 36  1  0
 29 30  1  0
 30 31  1  0
 31 32  2  0
 32 33  1  0
 34 33  2  0
 35 34  1  0
 36 35  2  0
 36 31  1  0
M  END
$$$$
