lig_006
     RDKit          3D

 23 26  0  0  0  0  0  0  0  0999 V2000
    6.1440   -0.6390  -14.8390 C   0  0  0  0  0  0  0  0  0  0  0  0
    7.3920   -0.1160  -15.3870 N   0  0  0  0  0  0  0  0  0  0  0  0
    7.1210    0.9110  -16.4180 C   0  0  0  0  0  0  0  0  0  0  0  0
    8.2470    1.9530  -16.5690 C   0  0  0  0  0  0  0  0  0  0  0  0
    8.4270    2.7100  -15.3130 N   0  0  0  0  0  0  0  0  0  0  0  0
    9.2100    3.8690  -15.3200 C   0  0  0  0  0  0  0  0  0  0  0  0
    9.8950    4.1480  -16.3970 N   0  0  0  0  0  0  0  0  0  0  0  0
   10.7300    5.2670  -16.5520 C   0  0  0  0  0  0  0  0  0  0  0  0
   10.5880    5.9980  -17.7380 C   0  0  0  0  0  0  0  0  0  0  0  0
   11.4300    7.0720  -18.0330 C   0  0  0  0  0  0  0  0  0  0  0  0
   12.4430    7.4220  -17.1450 C   0  0  0  0  0  0  0  0  0  0  0  0
   12.6090    6.7010  -15.9630 C   0  0  0  0  0  0  0  0  0  0  0  0
   11.7590    5.6270  -15.6610 C   0  0  0  0  0  0  0  0  0  0  0  0
   11.9800    4.7910  -14.0930 S   0  0  0  0  0  0  0  0  0  0  0  0
   10.3560    5.1440  -13.4450 C   0  0  0  0  0  0  0  0  0  0  0  0
   10.2570    5.8900  -12.2630 C   0  0  0  0  0  0  0  0  0  0  0  0
    9.0050    6.2440  -11.7520 C   0  0  0  0  0  0  0  0  0  0  0  0
    7.8480    5.8570  -12.4230 C   0  0  0  0  0  0  0  0  0  0  0  0
    6.3080    6.2950  -11.7930 Cl  0  0  0  0  0  0  0  0  0  0  0  0
    7.9280    5.1090  -13.5930 C   0  0  0  0  0  0  0  0  0  0  0  0
    9.1830    4.7420  -14.1000 C   0  0  0  0  0  0  0  0  0  0  0  0
    8.1960    1.9260  -14.0820 C   0  0  0  0  0  0  0  0  0  0  0  0
    8.2870    0.4040  -14.3340 C   0  0  0  0  0  0  0  0  0  0  0  0
  2  1  1  0
  2 23  1  0
  3  2  1  0
  4  3  1  0
  4  5  1  0
  5 22  1  0
  6  5  1  0
  6 21  1  0
  7  6  2  0
  8  7  1  0
  8 13  1  0
  9  8  2  0
 10  9  1  0
 10 11  2  0
 11 12  1  0
 12 13  2  0
 13 14  1  0
 14 15  1  0
 15 16  1  0
 16 17  2  0
 18 19  1  0
 18 17  1  0
 20 18  2  0
 21 20  1  0
 21 15  2  0
 23 22  1  0
M  END
$$$$
