lig_309
     RDKit          3D

 30 34  0  0  0  0  0  0  0  0999 V2000
   -6.6080   15.2160    9.4550 O   0  0  0  0  0  0  0  0  0  0  0  0
   -6.0330   14.2490    9.9470 C   0  0  0  0  0  0  0  0  0  0  0  0
   -5.3330   14.2650   11.1450 N   0  0  0  0  0  0  0  0  0  0  0  0
   -5.0530   15.3480   11.9540 C   0  0  0  0  0  0  0  0  0  0  0  0
   -5.4680   16.5560   11.7630 N   0  0  0  0  0  0  0  0  0  0  0  0
   -5.0920   17.5500   12.6920 C   0  0  0  0  0  0  0  0  0  0  0  0
   -5.5710   18.7790   12.4160 N   0  0  0  0  0  0  0  0  0  0  0  0
   -5.2460   19.7730   13.2690 C   0  0  0  0  0  0  0  0  0  0  0  0
   -4.4580   19.5980   14.3960 C   0  0  0  0  0  0  0  0  0  0  0  0
   -3.9660   18.3250   14.6740 C   0  0  0  0  0  0  0  0  0  0  0  0
   -4.2860   17.2800   13.8120 C   0  0  0  0  0  0  0  0  0  0  0  0
   -3.8530   15.9670   13.9860 N   0  0  0  0  0  0  0  0  0  0  0  0
   -3.0650   15.3700   14.9430 C   0  0  0  0  0  0  0  0  0  0  0  0
   -2.5490   15.9080   15.9120 O   0  0  0  0  0  0  0  0  0  0  0  0
   -2.9930   14.0040   14.5400 N   0  0  0  0  0  0  0  0  0  0  0  0
   -3.7230   13.8050   13.3760 N   0  0  0  0  0  0  0  0  0  0  0  0
   -4.1870   14.9890   13.1240 C   0  0  0  0  0  0  0  0  0  0  0  0
   -2.3090   12.9240   15.1370 C   0  0  0  0  0  0  0  0  0  0  0  0
   -1.3550   12.1750   14.4360 C   0  0  0  0  0  0  0  0  0  0  0  0
   -0.6910   11.1070   15.0490 C   0  0  0  0  0  0  0  0  0  0  0  0
   -0.9700   10.7720   16.3720 C   0  0  0  0  0  0  0  0  0  0  0  0
   -1.9170   11.5040   17.0830 C   0  0  0  0  0  0  0  0  0  0  0  0
   -2.5800   12.5710   16.4690 C   0  0  0  0  0  0  0  0  0  0  0  0
   -6.1300   12.8830    9.2760 C   0  0  0  0  0  0  0  0  0  0  0  0
   -5.1490   12.6380    8.1510 C   0  0  0  0  0  0  0  0  0  0  0  0
   -4.2310   13.6330    7.7850 C   0  0  0  0  0  0  0  0  0  0  0  0
   -3.2890   13.3890    6.7860 C   0  0  0  0  0  0  0  0  0  0  0  0
   -3.2560   12.1520    6.1430 C   0  0  0  0  0  0  0  0  0  0  0  0
   -4.1680   11.1600    6.4960 C   0  0  0  0  0  0  0  0  0  0  0  0
   -5.1130   11.4000    7.4940 C   0  0  0  0  0  0  0  0  0  0  0  0
  1  2  2  0
  2  3  1  0
  3  4  1  0
  4 17  2  0
  5  4  1  0
  5  6  2  0
  6 11  1  0
  7  6  1  0
  7  8  1  0
  8  9  2  0
  9 10  1  0
 11 12  1  0
 11 10  2  0
 12 13  1  0
 13 14  2  0
 15 13  1  0
 15 18  1  0
 16 15  1  0
 17 16  1  0
 17 12  1  0
 18 23  1  0
 19 20  1  0
 19 18  2  0
 20 21  2  0
 21 22  1  0
 23 22  2  0
 24  2  1  0
 25 24  1  0
 26 25  2  0
 27 26  1  0
 28 29  1  0
 28 27  2  0
 29 30  2  0
 30 25  1  0
M  END
$$$$
