lig_338
     RDKit          3D

 29 34  0  0  1  0  0  0  0  0999 V2000
    0.5770  -16.0970   12.8060 C   0  0  2  0  0  0  0  0  0  0  0  0
    2.0610  -16.5390   12.7070 C   0  0  0  0  0  0  0  0  0  0  0  0
    2.3250  -17.9510   13.2710 C   0  0  1  0  0  0  0  0  0  0  0  0
    1.9320  -18.0580   14.7460 C   0  0  0  0  0  0  0  0  0  0  0  0
    0.4740  -18.5110   14.7260 C   0  0  0  0  0  0  0  0  0  0  0  0
    0.1210  -18.6160   13.2420 C   0  0  1  0  0  0  0  0  0  0  0  0
   -0.4230  -17.2860   12.6710 C   0  0  0  0  0  0  0  0  0  0  0  0
    1.3930  -18.8190   12.5520 N   0  0  0  0  0  0  0  0  0  0  0  0
    0.3260  -14.9550   11.8090 C   0  0  0  0  0  0  0  0  0  0  0  0
   -0.6370  -13.9640   12.0560 C   0  0  0  0  0  0  0  0  0  0  0  0
   -0.8740  -12.9370   11.1350 C   0  0  0  0  0  0  0  0  0  0  0  0
   -0.1720  -12.8800    9.9240 C   0  0  0  0  0  0  0  0  0  0  0  0
   -0.3990  -11.8560    8.9900 C   0  0  0  0  0  0  0  0  0  0  0  0
    0.3010  -11.8240    7.7830 C   0  0  0  0  0  0  0  0  0  0  0  0
    1.2320  -12.8170    7.4940 C   0  0  0  0  0  0  0  0  0  0  0  0
    1.4670  -13.8410    8.4130 C   0  0  0  0  0  0  0  0  0  0  0  0
    0.7750  -13.8850    9.6350 C   0  0  0  0  0  0  0  0  0  0  0  0
    1.0000  -14.9080   10.5720 C   0  0  0  0  0  0  0  0  0  0  0  0
    0.3710  -15.5630   14.1320 O   0  0  0  0  0  0  0  0  0  0  0  0
    1.8090  -20.1890   12.2630 C   0  0  0  0  0  0  0  0  0  0  0  0
    0.7300  -21.2220   12.2040 C   0  0  0  0  0  0  0  0  0  0  0  0
   -0.3000  -21.2840   11.2810 C   0  0  0  0  0  0  0  0  0  0  0  0
   -1.0890  -22.3600   11.5800 N   0  0  0  0  0  0  0  0  0  0  0  0
   -0.6300  -22.9860   12.7140 C   0  0  0  0  0  0  0  0  0  0  0  0
   -1.1320  -24.1030   13.3920 C   0  0  0  0  0  0  0  0  0  0  0  0
   -0.4610  -24.5190   14.5450 C   0  0  0  0  0  0  0  0  0  0  0  0
    0.6670  -23.8420   15.0010 C   0  0  0  0  0  0  0  0  0  0  0  0
    1.1560  -22.7270   14.3090 C   0  0  0  0  0  0  0  0  0  0  0  0
    0.5020  -22.2890   13.1380 C   0  0  0  0  0  0  0  0  0  0  0  0
  1 19  1  1
  2  1  1  0
  3  2  1  6
  3  4  1  0
  5  4  1  0
  6  7  1  6
  6  5  1  0
  7  1  1  0
  8  6  1  0
  8  3  1  0
  9 10  1  0
  9  1  1  0
 11 10  2  0
 12 11  1  0
 13 12  2  0
 14 13  1  0
 15 14  2  0
 15 16  1  0
 16 17  2  0
 17 12  1  0
 17 18  1  0
 18  9  2  0
 20  8  1  0
 21 20  1  0
 21 29  1  0
 22 23  1  0
 22 21  2  0
 23 24  1  0
 24 29  1  0
 24 25  2  0
 25 26  1  0
 26 27  2  0
 28 27  1  0
 29 28  2  0
M  END
$$$$
