lig_293
     RDKit          3D

 37 41  0  0  0  0  0  0  0  0999 V2000
   -2.6350   11.5070   15.6270 C   0  0  0  0  0  0  0  0  0  0  0  0
   -1.9430   11.9240   14.4770 C   0  0  0  0  0  0  0  0  0  0  0  0
   -1.9580   13.2610   14.0660 C   0  0  0  0  0  0  0  0  0  0  0  0
   -2.6640   14.1960   14.8220 C   0  0  0  0  0  0  0  0  0  0  0  0
   -3.3620   13.8070   15.9670 C   0  0  0  0  0  0  0  0  0  0  0  0
   -3.3440   12.4670   16.3680 C   0  0  0  0  0  0  0  0  0  0  0  0
   -3.0890    5.7440   17.0010 N   0  0  0  0  0  0  0  0  0  0  0  0
   -1.7260    5.8970   17.3090 C   0  0  0  0  0  0  0  0  0  0  0  0
   -1.0240    4.9850   17.7480 O   0  0  0  0  0  0  0  0  0  0  0  0
   -1.1720    7.1400   17.1080 N   0  0  0  0  0  0  0  0  0  0  0  0
   -1.9230    8.1750   16.6580 C   0  0  0  0  0  0  0  0  0  0  0  0
   -1.5030    9.4390   16.4250 N   0  0  0  0  0  0  0  0  0  0  0  0
   -2.5860   10.0920   16.0120 C   0  0  0  0  0  0  0  0  0  0  0  0
   -3.6740    9.2350   15.9820 N   0  0  0  0  0  0  0  0  0  0  0  0
   -3.2430    8.0120   16.3990 C   0  0  0  0  0  0  0  0  0  0  0  0
   -3.9300    6.7800   16.5660 C   0  0  0  0  0  0  0  0  0  0  0  0
   -5.1320    6.6650   16.3530 O   0  0  0  0  0  0  0  0  0  0  0  0
   -3.6910    4.4350   17.2240 C   0  0  0  0  0  0  0  0  0  0  0  0
   -2.9910    2.3090   16.0650 C   0  0  0  0  0  0  0  0  0  0  0  0
   -3.7540    3.6170   15.9330 C   0  0  0  0  0  0  0  0  0  0  0  0
   -2.7040   15.9000   14.3270 S   0  0  0  0  0  0  0  0  0  0  0  0
   -1.7530   16.0540   13.2460 O   0  0  0  0  0  0  0  0  0  0  0  0
   -2.6330   16.7300   15.5110 O   0  0  0  0  0  0  0  0  0  0  0  0
   -4.2770   16.0600   13.6820 N   0  0  0  0  0  0  0  0  0  0  0  0
   -4.3900   16.9930   12.5120 C   0  0  0  0  0  0  0  0  0  0  0  0
   -5.6120   16.6640   11.6340 C   0  0  0  0  0  0  0  0  0  0  0  0
   -5.6130   15.3000   11.0660 N   0  0  0  0  0  0  0  0  0  0  0  0
   -4.9040   14.3480   11.9550 C   0  0  0  0  0  0  0  0  0  0  0  0
   -4.9630   14.7460   13.4390 C   0  0  0  0  0  0  0  0  0  0  0  0
   -5.0550   15.2780    9.7040 C   0  0  0  0  0  0  0  0  0  0  0  0
   -5.2290   13.9420    9.0130 C   0  0  0  0  0  0  0  0  0  0  0  0
   -6.3370   13.1290    9.3060 C   0  0  0  0  0  0  0  0  0  0  0  0
   -6.5040   11.8980    8.6700 C   0  0  0  0  0  0  0  0  0  0  0  0
   -5.5670   11.4650    7.7330 C   0  0  0  0  0  0  0  0  0  0  0  0
   -4.4660   12.2660    7.4360 C   0  0  0  0  0  0  0  0  0  0  0  0
   -3.3090   11.7300    6.2800 Cl  0  0  0  0  0  0  0  0  0  0  0  0
   -4.2930   13.4970    8.0690 C   0  0  0  0  0  0  0  0  0  0  0  0
  1 13  1  0
  1  6  2  0
  2  1  1  0
  3  2  2  0
  3  4  1  0
  4  5  2  0
  5  6  1  0
  7 18  1  0
  7  8  1  0
  8  9  2  0
 10  8  1  0
 11 10  1  0
 12 11  1  0
 13 12  2  0
 14 13  1  0
 14 15  1  0
 15 16  1  0
 15 11  2  0
 16  7  1  0
 17 16  2  0
 20 19  1  0
 20 18  1  0
 21  4  1  0
 21 23  2  0
 22 21  2  0
 24 21  1  0
 25 24  1  0
 26 25  1  0
 27 26  1  0
 27 28  1  0
 28 29  1  0
 29 24  1  0
 30 27  1  0
 31 32  2  0
 31 30  1  0
 33 32  1  0
 34 33  2  0
 35 34  1  0
 35 37  2  0
 36 35  1  0
 37 31  1  0
M  END
$$$$
