lig_153
     RDKit          3D

 27 30  0  0  0  0  0  0  0  0999 V2000
   -1.0060   10.2780   15.9030 C   0  0  0  0  0  0  0  0  0  0  0  0
   -2.2580   10.6400   15.3580 C   0  0  0  0  0  0  0  0  0  0  0  0
   -3.3530    9.7740   15.4090 C   0  0  0  0  0  0  0  0  0  0  0  0
   -3.1500    8.5540   16.0160 C   0  0  0  0  0  0  0  0  0  0  0  0
   -1.9200    8.1690   16.5610 C   0  0  0  0  0  0  0  0  0  0  0  0
   -0.8330    9.0280   16.5100 C   0  0  0  0  0  0  0  0  0  0  0  0
   -2.0570    6.8400   17.1080 C   0  0  0  0  0  0  0  0  0  0  0  0
   -1.0610    6.1600   17.6840 N   0  0  0  0  0  0  0  0  0  0  0  0
   -1.4120    4.9450   18.1120 C   0  0  0  0  0  0  0  0  0  0  0  0
   -0.4400    4.1780   18.7130 N   0  0  0  0  0  0  0  0  0  0  0  0
   -2.6310    4.3920   17.9710 N   0  0  0  0  0  0  0  0  0  0  0  0
   -3.6260    5.1200   17.3860 C   0  0  0  0  0  0  0  0  0  0  0  0
   -3.3480    6.3760   16.9340 C   0  0  0  0  0  0  0  0  0  0  0  0
   -4.0960    7.4350   16.2260 C   0  0  0  0  0  0  0  0  0  0  0  0
   -5.2530    7.4260   15.8690 O   0  0  0  0  0  0  0  0  0  0  0  0
   -4.9240    4.4330   17.2930 C   0  0  0  0  0  0  0  0  0  0  0  0
   -5.1390    3.3430   16.4330 C   0  0  0  0  0  0  0  0  0  0  0  0
   -6.3860    2.7150   16.3540 C   0  0  0  0  0  0  0  0  0  0  0  0
   -7.4500    3.1710   17.1260 C   0  0  0  0  0  0  0  0  0  0  0  0
   -7.2690    4.2580   17.9750 C   0  0  0  0  0  0  0  0  0  0  0  0
   -6.0210    4.8820   18.0530 C   0  0  0  0  0  0  0  0  0  0  0  0
   -0.0410   11.2390   15.7690 O   0  0  0  0  0  0  0  0  0  0  0  0
   -0.3570   12.3810   14.9700 C   0  0  0  0  0  0  0  0  0  0  0  0
   -0.2840   13.6580   15.8300 C   0  0  0  0  0  0  0  0  0  0  0  0
   -2.1750   13.7790   17.3760 C   0  0  0  0  0  0  0  0  0  0  0  0
   -1.5420   14.3420   16.1870 N   0  0  0  0  0  0  0  0  0  0  0  0
   -2.4860   14.4040   15.0750 C   0  0  0  0  0  0  0  0  0  0  0  0
  1  6  2  0
  2  3  2  0
  2  1  1  0
  3  4  1  0
  4 14  1  0
  4  5  2  0
  5  7  1  0
  6  5  1  0
  7  8  2  0
  8  9  1  0
  9 10  1  0
 11  9  2  0
 12 11  1  0
 13  7  1  0
 13 12  2  0
 14 13  1  0
 15 14  2  0
 16 12  1  0
 16 21  1  0
 17 16  2  0
 18 17  1  0
 18 19  2  0
 19 20  1  0
 20 21  2  0
 22  1  1  0
 23 22  1  0
 23 24  1  0
 24 26  1  0
 26 25  1  0
 27 26  1  0
M  END
$$$$
