lig_005
     RDKit          3D

 19 22  0  0  1  0  0  0  0  0999 V2000
  184.7700  174.3240  175.0760 C   0  0  0  0  0  0  0  0  0  0  0  0
  185.9880  174.9250  174.5430 N   0  0  0  0  0  0  0  0  0  0  0  0
  186.1160  176.3230  174.9500 C   0  0  0  0  0  0  0  0  0  0  0  0
  187.4100  176.9650  174.4300 C   0  0  0  0  0  0  0  0  0  0  0  0
  187.7150  176.6300  172.9360 C   0  0  2  0  0  0  0  0  0  0  0  0
  188.0160  177.9450  172.1650 C   0  0  0  0  0  0  0  0  0  0  0  0
  188.1550  177.7430  170.6540 C   0  0  0  0  0  0  0  0  0  0  0  0
  186.9130  177.0850  170.0640 C   0  0  0  0  0  0  0  0  0  0  0  0
  186.5770  175.7800  170.7790 C   0  0  0  0  0  0  0  0  0  0  0  0
  186.4510  175.9920  172.3020 C   0  0  1  0  0  0  0  0  0  0  0  0
  186.1250  174.7020  173.0820 C   0  0  1  0  0  0  0  0  0  0  0  0
  187.2380  173.6570  172.8670 C   0  0  0  0  0  0  0  0  0  0  0  0
  188.6410  174.2280  172.9240 C   0  0  0  0  0  0  0  0  0  0  0  0
  189.7170  173.3220  172.9370 C   0  0  0  0  0  0  0  0  0  0  0  0
  191.0330  173.7770  172.9830 C   0  0  0  0  0  0  0  0  0  0  0  0
  191.2730  175.1420  173.0170 C   0  0  0  0  0  0  0  0  0  0  0  0
  190.2220  176.0560  172.9960 C   0  0  0  0  0  0  0  0  0  0  0  0
  188.8860  175.6200  172.9270 C   0  0  0  0  0  0  0  0  0  0  0  0
  192.5430  175.6380  173.0770 O   0  0  0  0  0  0  0  0  0  0  0  0
  2  3  1  0
  2  1  1  0
  4  3  1  0
  5  6  1  6
  5  4  1  0
  7  6  1  0
  8  7  1  0
  8  9  1  0
 10  9  1  6
 10  5  1  0
 10 11  1  0
 11 12  1  1
 11  2  1  0
 12 13  1  0
 13 18  2  0
 13 14  1  0
 14 15  2  0
 15 16  1  0
 16 19  1  0
 17 16  2  0
 18  5  1  0
 18 17  1  0
M  END
$$$$
