lig_014
     RDKit          3D

 26 29  0  0  0  0  0  0  0  0999 V2000
    9.2500    5.2000  -11.5530 N   0  0  0  0  0  0  0  0  0  0  0  0
    8.9520    5.4410  -10.1170 C   0  0  0  0  0  0  0  0  0  0  0  0
   10.0580    6.2950   -9.4550 C   0  0  0  0  0  0  0  0  0  0  0  0
   10.1910    7.6290  -10.0700 N   0  0  0  0  0  0  0  0  0  0  0  0
    9.9440    7.6100  -11.5220 C   0  0  0  0  0  0  0  0  0  0  0  0
   10.1100    6.2240  -12.1850 C   0  0  0  0  0  0  0  0  0  0  0  0
    8.2350    3.6640  -13.1810 C   0  0  0  0  0  0  0  0  0  0  0  0
    7.1060    3.1060  -13.7920 C   0  0  0  0  0  0  0  0  0  0  0  0
    5.8410    3.6140  -13.5210 C   0  0  0  0  0  0  0  0  0  0  0  0
    5.7030    4.6690  -12.6250 C   0  0  0  0  0  0  0  0  0  0  0  0
    6.8290    5.2080  -11.9920 C   0  0  0  0  0  0  0  0  0  0  0  0
    8.1220    4.7170  -12.2420 C   0  0  0  0  0  0  0  0  0  0  0  0
    9.2810    2.2080  -14.6590 C   0  0  0  0  0  0  0  0  0  0  0  0
    9.4320    3.0910  -13.5470 O   0  0  0  0  0  0  0  0  0  0  0  0
   11.3740    8.3760   -9.6420 C   0  0  0  0  0  0  0  0  0  0  0  0
   11.3380    8.8070   -8.2050 C   0  0  0  0  0  0  0  0  0  0  0  0
   10.9530   10.0770   -7.7070 C   0  0  0  0  0  0  0  0  0  0  0  0
   11.0810   10.0510   -6.3370 C   0  0  0  0  0  0  0  0  0  0  0  0
   11.5510    8.8120   -5.9420 N   0  0  0  0  0  0  0  0  0  0  0  0
   11.7230    8.0690   -7.0970 C   0  0  0  0  0  0  0  0  0  0  0  0
   11.8120    8.3830   -4.6020 C   0  0  0  0  0  0  0  0  0  0  0  0
   11.4480    7.0960   -4.1780 C   0  0  0  0  0  0  0  0  0  0  0  0
   11.7050    6.6780   -2.8680 C   0  0  0  0  0  0  0  0  0  0  0  0
   12.3260    7.5380   -1.9670 C   0  0  0  0  0  0  0  0  0  0  0  0
   12.6920    8.8170   -2.3740 C   0  0  0  0  0  0  0  0  0  0  0  0
   12.4380    9.2410   -3.6830 C   0  0  0  0  0  0  0  0  0  0  0  0
  1  2  1  0
  2  3  1  0
  4 15  1  0
  4  3  1  0
  5  4  1  0
  6  1  1  0
  6  5  1  0
  7 12  1  0
  8  9  1  0
  8  7  2  0
  9 10  2  0
 10 11  1  0
 12 11  2  0
 12  1  1  0
 13 14  1  0
 14  7  1  0
 15 16  1  0
 16 17  1  0
 16 20  2  0
 17 18  2  0
 18 19  1  0
 19 21  1  0
 20 19  1  0
 21 22  2  0
 21 26  1  0
 22 23  1  0
 23 24  2  0
 25 24  1  0
 26 25  2  0
M  END
$$$$
