lig_027
     RDKit          3D

 37 40  0  0  1  0  0  0  0  0999 V2000
    7.8390  -26.5860   64.6330 C   0  0  0  0  0  0  0  0  0  0  0  0
    7.5350  -26.6560   63.1540 C   0  0  0  0  0  0  0  0  0  0  0  0
    7.1740  -27.8760   62.5670 C   0  0  0  0  0  0  0  0  0  0  0  0
    6.9170  -27.9570   61.1950 C   0  0  0  0  0  0  0  0  0  0  0  0
    7.0230  -26.8230   60.3810 C   0  0  0  0  0  0  0  0  0  0  0  0
    7.4090  -25.6080   60.9620 C   0  0  0  0  0  0  0  0  0  0  0  0
    7.6670  -25.5270   62.3330 C   0  0  0  0  0  0  0  0  0  0  0  0
    6.7580  -26.9190   58.8990 C   0  0  0  0  0  0  0  0  0  0  0  0
    5.5740  -27.7410   58.6380 N   0  0  0  0  0  0  0  0  0  0  0  0
    4.0870  -26.9520   58.5950 S   0  0  0  0  0  0  0  0  0  0  0  0
    4.2910  -25.7470   59.3690 O   0  0  0  0  0  0  0  0  0  0  0  0
    3.0780  -27.9270   58.9480 O   0  0  0  0  0  0  0  0  0  0  0  0
    3.9700  -26.5300   56.8490 C   0  0  0  0  0  0  0  0  0  0  0  0
    2.5540  -26.1360   56.5260 C   0  0  0  0  0  0  0  0  0  0  0  0
    2.0680  -24.8690   56.8840 C   0  0  0  0  0  0  0  0  0  0  0  0
    0.7560  -24.5030   56.5810 C   0  0  0  0  0  0  0  0  0  0  0  0
   -0.0830  -25.3950   55.9170 C   0  0  0  0  0  0  0  0  0  0  0  0
    0.3910  -26.6530   55.5510 C   0  0  0  0  0  0  0  0  0  0  0  0
    1.7030  -27.0230   55.8520 C   0  0  0  0  0  0  0  0  0  0  0  0
    7.7660  -28.0500   67.1620 C   0  0  0  0  0  0  0  0  0  0  0  0
    6.5960  -27.3160   66.6930 N   0  0  0  0  0  0  0  0  0  0  0  0
    6.6000  -26.5580   65.5250 C   0  0  0  0  0  0  0  0  0  0  0  0
    5.6330  -25.8750   65.1750 O   0  0  0  0  0  0  0  0  0  0  0  0
    5.5010  -27.1470   67.6850 C   0  0  1  0  0  0  0  0  0  0  0  0
    4.7860  -28.4760   67.9240 C   0  0  0  0  0  0  0  0  0  0  0  0
    4.9600  -29.1490   69.1450 C   0  0  0  0  0  0  0  0  0  0  0  0
    4.3100  -30.3580   69.3970 C   0  0  0  0  0  0  0  0  0  0  0  0
    3.4680  -30.9100   68.4340 C   0  0  0  0  0  0  0  0  0  0  0  0
    3.2760  -30.2520   67.2220 C   0  0  0  0  0  0  0  0  0  0  0  0
    3.9280  -29.0430   66.9690 C   0  0  0  0  0  0  0  0  0  0  0  0
    5.9200  -26.3650   68.9800 C   0  0  0  0  0  0  0  0  0  0  0  0
    5.1500  -25.1290   69.2410 N   0  0  0  0  0  0  0  0  0  0  0  0
    5.9810  -23.9550   69.5140 C   0  0  0  0  0  0  0  0  0  0  0  0
    4.9910  -22.8120   69.3670 C   0  0  0  0  0  0  0  0  0  0  0  0
    4.1060  -23.2380   68.2050 C   0  0  1  0  0  0  0  0  0  0  0  0
    4.3260  -24.7530   68.0790 C   0  0  0  0  0  0  0  0  0  0  0  0
    2.7540  -22.8900   68.4830 O   0  0  0  0  0  0  0  0  0  0  0  0
  1 22  1  0
  2  1  1  0
  3  2  1  0
  4  3  2  0
  5  6  2  0
  5  4  1  0
  6  7  1  0
  7  2  2  0
  8  5  1  0
  9  8  1  0
 10  9  1  0
 10 12  2  0
 10 11  2  0
 13 10  1  0
 14 13  1  0
 14 15  2  0
 16 15  1  0
 17 16  2  0
 18 19  2  0
 18 17  1  0
 19 14  1  0
 21 20  1  0
 21 24  1  0
 22 21  1  0
 23 22  2  0
 24 25  1  0
 24 31  1  1
 25 26  2  0
 26 27  1  0
 28 27  2  0
 29 28  1  0
 30 29  2  0
 30 25  1  0
 31 32  1  0
 32 33  1  0
 34 33  1  0
 35 37  1  1
 35 34  1  0
 36 35  1  0
 36 32  1  0
M  END
$$$$
