lig_020
     RDKit          3D

 26 28  0  0  1  0  0  0  0  0999 V2000
    9.9570    7.2990  -10.8990 C   0  0  0  0  0  0  0  0  0  0  0  0
   10.2830    7.9140   -6.7100 C   0  0  1  0  0  0  0  0  0  0  0  0
   10.4220    8.8870   -7.8920 C   0  0  0  0  0  0  0  0  0  0  0  0
   11.3030    8.3140   -8.9990 C   0  0  0  0  0  0  0  0  0  0  0  0
   10.7260    7.0100   -9.5900 C   0  0  1  0  0  0  0  0  0  0  0  0
    9.8520    6.2500   -8.5730 C   0  0  0  0  0  0  0  0  0  0  0  0
   10.3530    6.4390   -7.1470 C   0  0  0  0  0  0  0  0  0  0  0  0
   13.0280    9.1520   -3.6900 C   0  0  0  0  0  0  0  0  0  0  0  0
   12.3930    7.8410   -3.6820 N   0  0  0  0  0  0  0  0  0  0  0  0
   12.5000    7.1050   -2.4340 C   0  0  0  0  0  0  0  0  0  0  0  0
   11.3450    7.4900   -4.5260 C   0  0  0  0  0  0  0  0  0  0  0  0
   10.5260    6.6170   -4.2530 O   0  0  0  0  0  0  0  0  0  0  0  0
   11.3010    8.1980   -5.7020 N   0  0  0  0  0  0  0  0  0  0  0  0
    9.4000    6.0560  -11.6180 C   0  0  0  0  0  0  0  0  0  0  0  0
    8.7230    6.3580  -12.8880 N   0  0  0  0  0  0  0  0  0  0  0  0
    9.2900    5.6000  -14.0140 C   0  0  0  0  0  0  0  0  0  0  0  0
    9.0730    4.0830  -13.9220 C   0  0  0  0  0  0  0  0  0  0  0  0
    7.6820    3.6960  -13.4640 C   0  0  0  0  0  0  0  0  0  0  0  0
    6.8400    4.6880  -12.9130 C   0  0  0  0  0  0  0  0  0  0  0  0
    5.5560    4.3410  -12.4670 C   0  0  0  0  0  0  0  0  0  0  0  0
    5.1150    3.0220  -12.5370 C   0  0  0  0  0  0  0  0  0  0  0  0
    5.9490    2.0300  -13.0580 C   0  0  0  0  0  0  0  0  0  0  0  0
    5.3250    0.4160  -13.0990 Cl  0  0  0  0  0  0  0  0  0  0  0  0
    7.2330    2.3580  -13.5180 C   0  0  0  0  0  0  0  0  0  0  0  0
    8.2810    1.1230  -14.1450 Cl  0  0  0  0  0  0  0  0  0  0  0  0
    7.2690    6.1410  -12.8520 C   0  0  0  0  0  0  0  0  0  0  0  0
  2 13  1  1
  3  2  1  0
  4  3  1  0
  5  1  1  6
  5  4  1  0
  5  6  1  0
  6  7  1  0
  7  2  1  0
  8  9  1  0
  9 10  1  0
 11 12  2  0
 11  9  1  0
 13 11  1  0
 14  1  1  0
 15 26  1  0
 15 14  1  0
 16 17  1  0
 16 15  1  0
 17 18  1  0
 18 19  2  0
 19 26  1  0
 19 20  1  0
 21 20  2  0
 22 21  1  0
 23 22  1  0
 24 18  1  0
 24 22  2  0
 25 24  1  0
M  END
$$$$
