lig_017
     RDKit          3D

 29 33  0  0  1  0  0  0  0  0999 V2000
   11.8760    1.0400   59.9430 C   0  0  0  0  0  0  0  0  0  0  0  0
   13.2220    1.2720   59.3980 N   0  0  0  0  0  0  0  0  0  0  0  0
   14.2410    0.5570   60.2000 C   0  0  0  0  0  0  0  0  0  0  0  0
   15.6090    0.4510   59.4890 C   0  0  0  0  0  0  0  0  0  0  0  0
   15.5150   -0.3030   58.2120 N   0  0  0  0  0  0  0  0  0  0  0  0
   16.5230   -0.0510   57.3090 C   0  0  0  0  0  0  0  0  0  0  0  0
   16.3280    0.5840   56.1520 N   0  0  0  0  0  0  0  0  0  0  0  0
   17.7610    0.7540   55.3610 S   0  0  0  0  0  0  0  0  0  0  0  0
   18.7250   -0.0670   56.5150 C   0  0  0  0  0  0  0  0  0  0  0  0
   20.1060   -0.3300   56.4970 C   0  0  0  0  0  0  0  0  0  0  0  0
   20.6600   -1.0470   57.5590 C   0  0  0  0  0  0  0  0  0  0  0  0
   19.8610   -1.4960   58.6040 C   0  0  0  0  0  0  0  0  0  0  0  0
   18.4880   -1.2250   58.6120 C   0  0  0  0  0  0  0  0  0  0  0  0
   17.8930   -0.4820   57.5580 C   0  0  0  0  0  0  0  0  0  0  0  0
   14.1370   -0.3750   57.6750 C   0  0  0  0  0  0  0  0  0  0  0  0
   13.3390    0.9170   57.9610 C   0  0  0  0  0  0  0  0  0  0  0  0
   11.7320   -0.3710   60.5410 C   0  0  0  0  0  0  0  0  0  0  0  0
    6.6580   -3.7370   63.1830 C   0  0  0  0  0  0  0  0  0  0  0  0
    7.6070   -2.6090   62.7890 C   0  0  1  0  0  0  0  0  0  0  0  0
    8.4490   -2.1620   63.9780 C   0  0  0  0  0  0  0  0  0  0  0  0
    9.4680   -1.1350   63.5580 C   0  0  0  0  0  0  0  0  0  0  0  0
    9.9090   -0.1620   64.4600 C   0  0  0  0  0  0  0  0  0  0  0  0
   10.9100    0.7310   64.0890 C   0  0  0  0  0  0  0  0  0  0  0  0
   11.4890    0.6450   62.8220 C   0  0  0  0  0  0  0  0  0  0  0  0
   11.0750   -0.3370   61.9050 C   0  0  0  0  0  0  0  0  0  0  0  0
   10.0480   -1.2200   62.2810 C   0  0  0  0  0  0  0  0  0  0  0  0
    9.5970   -2.2200   61.4080 N   0  0  0  0  0  0  0  0  0  0  0  0
    8.5020   -3.0130   61.6290 C   0  0  0  0  0  0  0  0  0  0  0  0
    8.2320   -3.9280   60.8530 O   0  0  0  0  0  0  0  0  0  0  0  0
  1 17  1  0
  2  1  1  0
  2  3  1  0
  4  3  1  0
  5  4  1  0
  6 14  1  0
  6  5  1  0
  7  6  2  0
  8  7  1  0
  8  9  1  0
  9 14  1  0
 10  9  2  0
 10 11  1  0
 11 12  2  0
 12 13  1  0
 14 13  2  0
 15 16  1  0
 15  5  1  0
 16  2  1  0
 17 25  1  0
 19 18  1  1
 19 20  1  0
 21 20  1  0
 21 22  2  0
 23 22  1  0
 24 23  2  0
 25 26  2  0
 25 24  1  0
 26 21  1  0
 27 28  1  0
 27 26  1  0
 28 19  1  0
 29 28  2  0
M  END
$$$$
