lig_153
     RDKit          3D

 19 21  0  0  1  0  0  0  0  0999 V2000
   -1.1510    8.4220   16.7220 C   0  0  0  0  0  0  0  0  0  0  0  0
   -0.0390    7.7830   17.1530 N   0  0  0  0  0  0  0  0  0  0  0  0
   -0.1470    6.4880   17.5180 C   0  0  0  0  0  0  0  0  0  0  0  0
   -1.2490    5.7080   17.5300 N   0  0  0  0  0  0  0  0  0  0  0  0
   -2.3260    6.3930   17.1100 C   0  0  0  0  0  0  0  0  0  0  0  0
   -2.3650    7.7160   16.7000 C   0  0  0  0  0  0  0  0  0  0  0  0
   -3.6460    8.0830   16.3440 N   0  0  0  0  0  0  0  0  0  0  0  0
   -4.3690    6.9980   16.5240 C   0  0  0  0  0  0  0  0  0  0  0  0
   -3.6140    5.9480   16.9820 N   0  0  0  0  0  0  0  0  0  0  0  0
   -4.1250    4.6160   17.2370 C   0  0  2  0  0  0  0  0  0  0  0  0
   -3.3520    4.0040   18.2950 O   0  0  0  0  0  0  0  0  0  0  0  0
   -3.0080    2.6730   17.8570 C   0  0  1  0  0  0  0  0  0  0  0  0
   -2.9360    2.7450   16.3350 C   0  0  2  0  0  0  0  0  0  0  0  0
   -4.0870    3.6880   16.0180 C   0  0  1  0  0  0  0  0  0  0  0  0
   -3.1320    1.4830   15.7010 O   0  0  0  0  0  0  0  0  0  0  0  0
   -5.3100    2.9360   15.9270 O   0  0  0  0  0  0  0  0  0  0  0  0
   -1.7060    2.2370   18.5240 C   0  0  0  0  0  0  0  0  0  0  0  0
   -1.1790    3.2610   19.3640 O   0  0  0  0  0  0  0  0  0  0  0  0
   -1.0360    9.7520   16.3380 N   0  0  0  0  0  0  0  0  0  0  0  0
  1  2  1  0
  2  3  2  0
  3  4  1  0
  5  4  2  0
  6  1  2  0
  6  5  1  0
  7  8  2  0
  7  6  1  0
  8  9  1  0
  9  5  1  0
 10  9  1  6
 10 11  1  0
 12 11  1  0
 12 17  1  1
 13 15  1  6
 13 12  1  0
 14 16  1  1
 14 13  1  0
 14 10  1  0
 17 18  1  0
 19  1  1  0
M  END
$$$$
