lig_378
     RDKit          3D

 33 37  0  0  1  0  0  0  0  0999 V2000
   -0.2430  -18.9050   11.8170 C   0  0  1  0  0  0  0  0  0  0  0  0
   -1.4410  -19.2640   12.6720 C   0  0  0  0  0  0  0  0  0  0  0  0
   -1.4070  -20.6750   13.1810 C   0  0  0  0  0  0  0  0  0  0  0  0
   -2.4510  -21.3230   13.2170 O   0  0  0  0  0  0  0  0  0  0  0  0
   -0.0960  -21.2430   13.6040 C   0  0  0  0  0  0  0  0  0  0  0  0
    0.0070  -22.4220   14.3810 C   0  0  0  0  0  0  0  0  0  0  0  0
    1.2750  -23.0220   14.5030 C   0  0  0  0  0  0  0  0  0  0  0  0
    2.4070  -22.4710   13.9140 C   0  0  0  0  0  0  0  0  0  0  0  0
    2.3010  -21.2740   13.2210 C   0  0  0  0  0  0  0  0  0  0  0  0
    1.0650  -20.6280   13.0930 C   0  0  0  0  0  0  0  0  0  0  0  0
    1.0360  -19.3270   12.4500 N   0  0  0  0  0  0  0  0  0  0  0  0
   -1.0120  -23.0510   15.0940 N   0  0  0  0  0  0  0  0  0  0  0  0
   -0.9230  -22.9650   16.5660 C   0  0  0  0  0  0  0  0  0  0  0  0
   -1.4890  -24.2280   17.2630 C   0  0  0  0  0  0  0  0  0  0  0  0
   -2.7970  -24.7150   16.7720 N   0  0  0  0  0  0  0  0  0  0  0  0
   -3.9050  -24.0160   17.4160 C   0  0  0  0  0  0  0  0  0  0  0  0
   -2.8960  -24.6100   15.2950 C   0  0  0  0  0  0  0  0  0  0  0  0
   -1.5640  -24.3080   14.5640 C   0  0  0  0  0  0  0  0  0  0  0  0
    1.9410  -18.0650   13.2280 S   0  0  0  0  0  0  0  0  0  0  0  0
    3.2600  -18.0260   12.6270 O   0  0  0  0  0  0  0  0  0  0  0  0
    1.8050  -18.1610   14.6660 O   0  0  0  0  0  0  0  0  0  0  0  0
    1.0810  -16.5860   12.7270 C   0  0  0  0  0  0  0  0  0  0  0  0
    0.1800  -15.9840   13.6070 C   0  0  0  0  0  0  0  0  0  0  0  0
   -0.5000  -14.8330   13.2120 C   0  0  0  0  0  0  0  0  0  0  0  0
   -0.2720  -14.2610   11.9500 C   0  0  0  0  0  0  0  0  0  0  0  0
   -0.9530  -13.1060   11.5390 C   0  0  0  0  0  0  0  0  0  0  0  0
   -0.7110  -12.5430   10.2840 C   0  0  0  0  0  0  0  0  0  0  0  0
    0.2170  -13.1260    9.4270 C   0  0  0  0  0  0  0  0  0  0  0  0
    0.9050  -14.2750    9.8200 C   0  0  0  0  0  0  0  0  0  0  0  0
    0.6710  -14.8560   11.0760 C   0  0  0  0  0  0  0  0  0  0  0  0
    1.3510  -16.0140   11.4790 C   0  0  0  0  0  0  0  0  0  0  0  0
   -0.6880  -18.3580    9.2930 C   0  0  0  0  0  0  0  0  0  0  0  0
   -0.3010  -19.3810   10.3500 C   0  0  0  0  0  0  0  0  0  0  0  0
  1 33  1  6
  1 11  1  0
  1  2  1  0
  2  3  1  0
  3  4  2  0
  3  5  1  0
  5  6  2  0
  6  7  1  0
  6 12  1  0
  8  7  2  0
  9  8  1  0
 10  9  2  0
 10  5  1  0
 11 10  1  0
 11 19  1  0
 12 13  1  0
 13 14  1  0
 15 14  1  0
 15 16  1  0
 17 15  1  0
 18 12  1  0
 18 17  1  0
 19 21  2  0
 20 19  2  0
 22 19  1  0
 22 23  1  0
 24 23  2  0
 25 24  1  0
 26 25  2  0
 27 26  1  0
 28 29  1  0
 28 27  2  0
 29 30  2  0
 30 31  1  0
 30 25  1  0
 31 22  2  0
 32 33  1  0
M  END
$$$$
