lig_192
     RDKit          3D

 31 34  0  0  0  0  0  0  0  0999 V2000
    1.3620  -18.3460   13.4160 N   0  0  0  0  0  0  0  0  0  0  0  0
    1.5930  -19.3450   12.3570 C   0  0  0  0  0  0  0  0  0  0  0  0
    1.4240  -20.7960   12.8260 C   0  0  0  0  0  0  0  0  0  0  0  0
    0.3760  -20.8920   13.9400 C   0  0  0  0  0  0  0  0  0  0  0  0
    0.7790  -20.0050   15.1310 C   0  0  0  0  0  0  0  0  0  0  0  0
    1.7270  -18.8690   14.7340 C   0  0  0  0  0  0  0  0  0  0  0  0
    0.1000  -22.3050   14.3590 C   0  0  0  0  0  0  0  0  0  0  0  0
    1.0270  -23.2610   14.1950 N   0  0  0  0  0  0  0  0  0  0  0  0
    0.4610  -24.4270   14.6830 O   0  0  0  0  0  0  0  0  0  0  0  0
   -0.7920  -24.1680   15.1390 C   0  0  0  0  0  0  0  0  0  0  0  0
   -1.6660  -25.0920   15.7020 C   0  0  0  0  0  0  0  0  0  0  0  0
   -2.9020  -24.5840   16.0990 C   0  0  0  0  0  0  0  0  0  0  0  0
   -3.7960  -25.4160   16.6510 F   0  0  0  0  0  0  0  0  0  0  0  0
   -3.2390  -23.2400   15.9410 C   0  0  0  0  0  0  0  0  0  0  0  0
   -2.3320  -22.3370   15.3680 C   0  0  0  0  0  0  0  0  0  0  0  0
   -1.0780  -22.8250   14.9600 C   0  0  0  0  0  0  0  0  0  0  0  0
    2.0450  -17.0720   13.1410 C   0  0  0  0  0  0  0  0  0  0  0  0
    1.0930  -15.8720   13.1410 C   0  0  0  0  0  0  0  0  0  0  0  0
    0.1930  -15.8860   11.9090 C   0  0  0  0  0  0  0  0  0  0  0  0
    0.8550  -15.1480   10.8730 O   0  0  0  0  0  0  0  0  0  0  0  0
    0.1290  -13.5120    9.2360 C   0  0  0  0  0  0  0  0  0  0  0  0
   -0.6580  -12.3890    8.9560 C   0  0  0  0  0  0  0  0  0  0  0  0
   -1.4500  -11.8070    9.9600 C   0  0  0  0  0  0  0  0  0  0  0  0
   -1.4540  -12.3580   11.2490 C   0  0  0  0  0  0  0  0  0  0  0  0
   -0.6690  -13.4730   11.5370 C   0  0  0  0  0  0  0  0  0  0  0  0
    0.1320  -14.0300   10.5420 C   0  0  0  0  0  0  0  0  0  0  0  0
   -2.3050  -10.6090    9.7040 C   0  0  0  0  0  0  0  0  0  0  0  0
   -3.7900  -10.7030    9.9430 C   0  0  0  0  0  0  0  0  0  0  0  0
   -1.7940   -9.5670    9.3010 O   0  0  0  0  0  0  0  0  0  0  0  0
    0.3490  -14.4770    7.0640 C   0  0  0  0  0  0  0  0  0  0  0  0
    0.9210  -14.1600    8.3250 O   0  0  0  0  0  0  0  0  0  0  0  0
  1  6  1  0
  2  3  1  0
  2  1  1  0
  3  4  1  0
  4  7  1  0
  4  5  1  0
  6  5  1  0
  7 16  1  0
  8  7  2  0
  8  9  1  0
  9 10  1  0
 10 11  1  0
 11 12  2  0
 12 13  1  0
 14 12  1  0
 15 14  2  0
 16 10  2  0
 16 15  1  0
 17 18  1  0
 17  1  1  0
 19 18  1  0
 20 19  1  0
 21 26  2  0
 22 21  1  0
 22 23  2  0
 23 24  1  0
 24 25  2  0
 26 20  1  0
 26 25  1  0
 27 28  1  0
 27 23  1  0
 29 27  2  0
 30 31  1  0
 31 21  1  0
M  END
$$$$
