lig_070
     RDKit          3D

 23 26  0  0  0  0  0  0  0  0999 V2000
   -2.1700    7.7650   16.7570 N   0  0  0  0  0  0  0  0  0  0  0  0
   -3.3610    8.1670   16.2590 N   0  0  0  0  0  0  0  0  0  0  0  0
   -4.2230    7.1700   16.4380 N   0  0  0  0  0  0  0  0  0  0  0  0
   -3.5570    6.1270   17.0310 C   0  0  0  0  0  0  0  0  0  0  0  0
   -3.8920    4.8460   17.4530 C   0  0  0  0  0  0  0  0  0  0  0  0
   -2.9380    4.0480   18.0090 N   0  0  0  0  0  0  0  0  0  0  0  0
   -1.6930    4.5290   18.1460 C   0  0  0  0  0  0  0  0  0  0  0  0
   -0.7630    3.6760   18.7010 N   0  0  0  0  0  0  0  0  0  0  0  0
   -1.2550    5.7350   17.7600 N   0  0  0  0  0  0  0  0  0  0  0  0
   -2.2350    6.4840   17.2280 C   0  0  0  0  0  0  0  0  0  0  0  0
   -5.2230    4.2900   17.3280 C   0  0  0  0  0  0  0  0  0  0  0  0
   -5.7690    3.3160   16.5130 C   0  0  0  0  0  0  0  0  0  0  0  0
   -7.1370    3.2120   16.8600 C   0  0  0  0  0  0  0  0  0  0  0  0
   -7.3460    4.1270   17.8620 C   0  0  0  0  0  0  0  0  0  0  0  0
   -6.1950    4.7860   18.1510 O   0  0  0  0  0  0  0  0  0  0  0  0
   -1.0100    8.6280   16.7030 C   0  0  0  0  0  0  0  0  0  0  0  0
   -2.5500   13.4080   17.1750 C   0  0  0  0  0  0  0  0  0  0  0  0
   -2.0620   12.2800   16.3140 C   0  0  0  0  0  0  0  0  0  0  0  0
   -1.9370   12.4470   14.9320 C   0  0  0  0  0  0  0  0  0  0  0  0
   -1.5010   11.3930   14.1300 C   0  0  0  0  0  0  0  0  0  0  0  0
   -1.2000   10.1570   14.7000 C   0  0  0  0  0  0  0  0  0  0  0  0
   -1.3430    9.9600   16.0810 C   0  0  0  0  0  0  0  0  0  0  0  0
   -1.7730   11.0310   16.8800 C   0  0  0  0  0  0  0  0  0  0  0  0
  1 10  1  0
  2  3  2  0
  2  1  1  0
  3  4  1  0
  4 10  1  0
  4  5  2  0
  5  6  1  0
  6  7  2  0
  7  8  1  0
  9  7  1  0
 10  9  2  0
 11  5  1  0
 11 15  1  0
 12 13  1  0
 12 11  2  0
 13 14  2  0
 14 15  1  0
 16  1  1  0
 18 23  2  0
 18 17  1  0
 19 18  1  0
 20 21  1  0
 20 19  2  0
 21 22  2  0
 22 16  1  0
 22 23  1  0
M  END
$$$$
