lig_084
     RDKit          3D

 31 35  0  0  1  0  0  0  0  0999 V2000
   -1.6500    5.8070   17.3170 C   0  0  0  0  0  0  0  0  0  0  0  0
   -1.7120    7.0580   16.7810 N   0  0  0  0  0  0  0  0  0  0  0  0
   -0.6720    7.8920   17.0920 C   0  0  0  0  0  0  0  0  0  0  0  0
    0.3980    7.5080   17.9070 C   0  0  0  0  0  0  0  0  0  0  0  0
    0.4520    6.2600   18.4180 N   0  0  0  0  0  0  0  0  0  0  0  0
   -0.5720    5.4030   18.1150 C   0  0  0  0  0  0  0  0  0  0  0  0
   -6.9490    5.7640   18.4620 C   0  0  0  0  0  0  0  0  0  0  0  0
   -6.4540    4.6610   17.6080 C   0  0  0  0  0  0  0  0  0  0  0  0
   -7.1180    3.5930   17.0400 C   0  0  0  0  0  0  0  0  0  0  0  0
   -6.2670    2.8000   16.3160 N   0  0  0  0  0  0  0  0  0  0  0  0
   -5.0860    3.3670   16.4270 C   0  0  0  0  0  0  0  0  0  0  0  0
   -3.8190    2.9990   15.8970 C   0  0  0  0  0  0  0  0  0  0  0  0
   -2.7360    3.7540   16.1640 C   0  0  0  0  0  0  0  0  0  0  0  0
   -2.8170    4.9660   16.9870 C   0  0  0  0  0  0  0  0  0  0  0  0
   -4.0220    5.3030   17.4940 C   0  0  0  0  0  0  0  0  0  0  0  0
   -5.1390    4.5150   17.2120 N   0  0  0  0  0  0  0  0  0  0  0  0
   -0.4290    4.0490   18.6520 C   0  0  0  0  0  0  0  0  0  0  0  0
   -1.3470    3.1980   19.0800 N   0  0  0  0  0  0  0  0  0  0  0  0
   -0.6340    2.0900   19.4600 C   0  0  0  0  0  0  0  0  0  0  0  0
    0.7030    2.3020   19.2470 C   0  0  0  0  0  0  0  0  0  0  0  0
    0.8520    3.5520   18.7290 O   0  0  0  0  0  0  0  0  0  0  0  0
   -0.7200    9.2400   16.4410 C   0  0  0  0  0  0  0  0  0  0  0  0
   -0.1180   10.2060   16.8970 O   0  0  0  0  0  0  0  0  0  0  0  0
   -1.4560    9.2770   15.2720 N   0  0  0  0  0  0  0  0  0  0  0  0
   -1.5710   10.4570   14.4430 C   0  0  0  0  0  0  0  0  0  0  0  0
   -2.7780   11.3030   14.8220 C   0  0  2  0  0  0  0  0  0  0  0  0
   -2.4990   12.4400   15.7830 C   0  0  0  0  0  0  0  0  0  0  0  0
   -3.8810   12.7260   16.3350 C   0  0  0  0  0  0  0  0  0  0  0  0
   -4.6060   11.4870   16.3120 O   0  0  0  0  0  0  0  0  0  0  0  0
   -3.8260   10.5200   15.5940 C   0  0  0  0  0  0  0  0  0  0  0  0
    1.3950    8.3670   18.3500 N   0  0  0  0  0  0  0  0  0  0  0  0
  1  6  2  0
  2  3  2  0
  2  1  1  0
  3  4  1  0
  4 31  1  0
  4  5  2  0
  6  5  1  0
  6 17  1  0
  8  7  1  0
  9  8  2  0
 10 11  2  0
 10  9  1  0
 11 16  1  0
 12 13  2  0
 12 11  1  0
 13 14  1  0
 14  1  1  0
 14 15  2  0
 16 15  1  0
 16  8  1  0
 17 21  1  0
 17 18  2  0
 18 19  1  0
 20 19  2  0
 21 20  1  0
 22 23  2  0
 22  3  1  0
 24 22  1  0
 25 24  1  0
 26 25  1  1
 26 30  1  0
 26 27  1  0
 27 28  1  0
 29 28  1  0
 30 29  1  0
M  END
$$$$
