lig_394
     RDKit          3D

 34 38  0  0  0  0  0  0  0  0999 V2000
    0.1690  -19.8350   14.2750 N   0  0  0  0  0  0  0  0  0  0  0  0
    0.7380  -16.7550   12.2050 C   0  0  0  0  0  0  0  0  0  0  0  0
    1.8820  -16.2470   12.8340 C   0  0  0  0  0  0  0  0  0  0  0  0
    2.4720  -16.9010   13.9200 C   0  0  0  0  0  0  0  0  0  0  0  0
    1.9290  -18.0890   14.4010 C   0  0  0  0  0  0  0  0  0  0  0  0
    0.8000  -18.6320   13.7870 C   0  0  0  0  0  0  0  0  0  0  0  0
    0.2080  -17.9540   12.7150 C   0  0  0  0  0  0  0  0  0  0  0  0
    0.1960  -14.0700    7.4640 C   0  0  0  0  0  0  0  0  0  0  0  0
    0.7490  -15.0650    8.3790 N   0  0  0  0  0  0  0  0  0  0  0  0
    1.2170  -14.4510    9.6430 C   0  0  0  0  0  0  0  0  0  0  0  0
    0.2970  -14.6920   10.8610 C   0  0  0  0  0  0  0  0  0  0  0  0
    0.1120  -16.1330   11.1180 N   0  0  0  0  0  0  0  0  0  0  0  0
    0.0720  -16.9780    9.8950 C   0  0  0  0  0  0  0  0  0  0  0  0
   -0.2380  -16.1400    8.6340 C   0  0  0  0  0  0  0  0  0  0  0  0
    0.3030  -21.2110   13.2670 S   0  0  0  0  0  0  0  0  0  0  0  0
   -0.0880  -20.8660   11.9150 O   0  0  0  0  0  0  0  0  0  0  0  0
    1.5910  -21.8310   13.5130 O   0  0  0  0  0  0  0  0  0  0  0  0
   -0.9360  -22.3190   13.9100 C   0  0  0  0  0  0  0  0  0  0  0  0
   -2.2350  -22.2690   13.4030 C   0  0  0  0  0  0  0  0  0  0  0  0
   -3.2020  -23.1420   13.9040 C   0  0  0  0  0  0  0  0  0  0  0  0
   -2.8750  -24.0820   14.8970 C   0  0  0  0  0  0  0  0  0  0  0  0
   -3.8380  -24.9630   15.4090 C   0  0  0  0  0  0  0  0  0  0  0  0
   -3.4990  -25.8990   16.3890 C   0  0  0  0  0  0  0  0  0  0  0  0
   -2.1930  -25.9650   16.8670 C   0  0  0  0  0  0  0  0  0  0  0  0
   -1.2220  -25.0960   16.3680 C   0  0  0  0  0  0  0  0  0  0  0  0
   -1.5470  -24.1470   15.3850 C   0  0  0  0  0  0  0  0  0  0  0  0
   -0.5810  -23.2650   14.8770 C   0  0  0  0  0  0  0  0  0  0  0  0
   -1.1230  -19.6950   14.9950 C   0  0  0  0  0  0  0  0  0  0  0  0
   -1.1220  -20.3340   16.3700 C   0  0  0  0  0  0  0  0  0  0  0  0
   -2.3050  -20.8290   16.9350 C   0  0  0  0  0  0  0  0  0  0  0  0
   -2.2920  -21.4210   18.1990 C   0  0  0  0  0  0  0  0  0  0  0  0
   -1.0970  -21.5260   18.9080 C   0  0  0  0  0  0  0  0  0  0  0  0
    0.0860  -21.0410   18.3560 C   0  0  0  0  0  0  0  0  0  0  0  0
    0.0750  -20.4490   17.0920 C   0  0  0  0  0  0  0  0  0  0  0  0
  1 28  1  0
  2  7  2  0
  2  3  1  0
  3  4  2  0
  4  5  1  0
  6  1  1  0
  6  5  2  0
  7  6  1  0
  8  9  1  0
  9 14  1  0
  9 10  1  0
 10 11  1  0
 11 12  1  0
 12  2  1  0
 13 12  1  0
 14 13  1  0
 15 17  2  0
 15 18  1  0
 15  1  1  0
 16 15  2  0
 18 27  2  0
 19 20  2  0
 19 18  1  0
 20 21  1  0
 21 26  1  0
 21 22  2  0
 22 23  1  0
 23 24  2  0
 25 24  1  0
 26 25  2  0
 27 26  1  0
 28 29  1  0
 29 30  2  0
 29 34  1  0
 30 31  1  0
 31 32  2  0
 33 32  1  0
 34 33  2  0
M  END
$$$$
