lig_047
     RDKit          3D

 28 31  0  0  1  0  0  0  0  0999 V2000
  -32.2640    8.9750    6.8170 C   0  0  0  0  0  0  0  0  0  0  0  0
  -32.8060    7.9080    7.6700 N   0  0  0  0  0  0  0  0  0  0  0  0
  -33.6780    5.5570    7.3590 C   0  0  1  0  0  0  0  0  0  0  0  0
  -34.7100    5.9620    6.2960 C   0  0  0  0  0  0  0  0  0  0  0  0
  -33.8850    6.5150    5.1290 C   0  0  0  0  0  0  0  0  0  0  0  0
  -32.4340    6.5710    5.6170 C   0  0  0  0  0  0  0  0  0  0  0  0
  -32.5150    6.5640    7.1520 C   0  0  1  0  0  0  0  0  0  0  0  0
  -36.0640    5.5160   10.3480 C   0  0  0  0  0  0  0  0  0  0  0  0
  -35.2160    5.0980   11.3810 C   0  0  0  0  0  0  0  0  0  0  0  0
  -33.8750    4.8280   11.1200 C   0  0  0  0  0  0  0  0  0  0  0  0
  -33.3660    4.9740    9.8280 C   0  0  0  0  0  0  0  0  0  0  0  0
  -34.1890    5.3920    8.7750 C   0  0  0  0  0  0  0  0  0  0  0  0
  -35.5430    5.6520    9.0520 C   0  0  0  0  0  0  0  0  0  0  0  0
  -38.2730    6.1500    9.3470 C   0  0  0  0  0  0  0  0  0  0  0  0
  -37.5210    5.7860   10.6180 C   0  0  0  0  0  0  0  0  0  0  0  0
  -31.5130   10.0230    7.6750 C   0  0  1  0  0  0  0  0  0  0  0  0
  -30.2590   10.5380    7.0000 C   0  0  0  0  0  0  0  0  0  0  0  0
  -30.2720   11.8270    6.4220 C   0  0  0  0  0  0  0  0  0  0  0  0
  -29.1370   12.3710    5.7940 C   0  0  0  0  0  0  0  0  0  0  0  0
  -27.9610   11.6350    5.7340 C   0  0  0  0  0  0  0  0  0  0  0  0
  -27.9390   10.3740    6.3020 C   0  0  0  0  0  0  0  0  0  0  0  0
  -26.8260    9.5350    6.3120 N   0  0  0  0  0  0  0  0  0  0  0  0
  -26.9960    8.3190    6.9190 C   0  0  0  0  0  0  0  0  0  0  0  0
  -26.1590    7.4430    7.0390 O   0  0  0  0  0  0  0  0  0  0  0  0
  -28.6560    8.1980    7.5280 S   0  0  0  0  0  0  0  0  0  0  0  0
  -29.0620    9.8260    6.9270 C   0  0  0  0  0  0  0  0  0  0  0  0
  -26.8360   12.1200    5.1370 O   0  0  0  0  0  0  0  0  0  0  0  0
  -32.3900   11.1040    8.0140 O   0  0  0  0  0  0  0  0  0  0  0  0
  1  2  1  0
  3 12  1  1
  4  3  1  0
  5  6  1  0
  5  4  1  0
  6  7  1  0
  7  3  1  0
  7  2  1  6
  8 15  1  0
  8  9  1  0
 10  9  2  0
 11 10  1  0
 12 13  1  0
 12 11  2  0
 13  8  2  0
 14 15  1  0
 16  1  1  0
 16 28  1  6
 17 16  1  0
 18 17  1  0
 19 18  2  0
 20 19  1  0
 20 21  2  0
 21 22  1  0
 21 26  1  0
 22 23  1  0
 23 24  2  0
 23 25  1  0
 26 17  2  0
 26 25  1  0
 27 20  1  0
M  END
$$$$
