lig_178
     RDKit          3D

 33 37  0  0  1  0  0  0  0  0999 V2000
   -0.0400  -21.8250   12.2440 C   0  0  0  0  0  0  0  0  0  0  0  0
   -1.2210  -22.7910   12.1750 C   0  0  0  0  0  0  0  0  0  0  0  0
   -1.0380  -24.0940   13.4340 S   0  0  0  0  0  0  0  0  0  0  0  0
   -0.3160  -22.1910   15.9200 C   0  0  0  0  0  0  0  0  0  0  0  0
   -1.6470  -22.7080   15.7180 N   0  0  0  0  0  0  0  0  0  0  0  0
   -2.0780  -23.4800   14.6730 C   0  0  0  0  0  0  0  0  0  0  0  0
   -3.3700  -23.6750   14.7660 N   0  0  0  0  0  0  0  0  0  0  0  0
   -3.8050  -23.0440   15.9040 N   0  0  0  0  0  0  0  0  0  0  0  0
   -2.7640  -22.4950   16.5030 C   0  0  0  0  0  0  0  0  0  0  0  0
   -2.7040  -21.7690   17.7270 C   0  0  0  0  0  0  0  0  0  0  0  0
   -2.5320  -22.3740   19.0370 C   0  0  0  0  0  0  0  0  0  0  0  0
   -2.4930  -21.6180   20.1400 C   0  0  0  0  0  0  0  0  0  0  0  0
   -2.6160  -20.2440   20.0680 N   0  0  0  0  0  0  0  0  0  0  0  0
   -2.5800  -19.4750   21.3020 C   0  0  0  0  0  0  0  0  0  0  0  0
   -2.8260  -19.5810   18.8610 C   0  0  0  0  0  0  0  0  0  0  0  0
   -2.9590  -18.3670   18.7390 O   0  0  0  0  0  0  0  0  0  0  0  0
   -2.8740  -20.4370   17.6470 C   0  0  0  0  0  0  0  0  0  0  0  0
   -0.2820  -20.6200   11.3260 C   0  0  0  0  0  0  0  0  0  0  0  0
    0.3510  -19.4020   11.8350 N   0  0  0  0  0  0  0  0  0  0  0  0
    0.3730  -19.2890   13.2940 C   0  0  0  0  0  0  0  0  0  0  0  0
    0.6970  -17.8230   13.5220 C   0  0  1  0  0  0  0  0  0  0  0  0
    2.1550  -17.4480   13.2640 C   0  0  0  0  0  0  0  0  0  0  0  0
    2.0630  -16.0250   12.7320 C   0  0  0  0  0  0  0  0  0  0  0  0
    0.8090  -16.0050   11.9780 N   0  0  0  0  0  0  0  0  0  0  0  0
   -0.0760  -17.0950   12.4150 C   0  0  1  0  0  0  0  0  0  0  0  0
   -0.3160  -18.1780   11.3470 C   0  0  0  0  0  0  0  0  0  0  0  0
    0.3440  -14.8690   11.3430 C   0  0  0  0  0  0  0  0  0  0  0  0
    0.8110  -14.4830   10.0730 C   0  0  0  0  0  0  0  0  0  0  0  0
    0.3530  -13.3250    9.4310 C   0  0  0  0  0  0  0  0  0  0  0  0
   -0.5840  -12.5220   10.0600 C   0  0  0  0  0  0  0  0  0  0  0  0
   -1.0240  -11.4130    9.4520 F   0  0  0  0  0  0  0  0  0  0  0  0
   -1.0620  -12.8530   11.3160 C   0  0  0  0  0  0  0  0  0  0  0  0
   -0.5960  -14.0130   11.9470 C   0  0  0  0  0  0  0  0  0  0  0  0
  2  1  1  0
  2  3  1  0
  3  6  1  0
  5  4  1  0
  5  9  1  0
  6  7  2  0
  6  5  1  0
  7  8  1  0
  8  9  2  0
  9 10  1  0
 10 11  1  0
 11 12  2  0
 13 12  1  0
 13 14  1  0
 15 13  1  0
 16 15  2  0
 17 10  2  0
 17 15  1  0
 18 19  1  0
 18  1  1  0
 19 20  1  0
 21 20  1  6
 21 22  1  0
 23 22  1  0
 24 25  1  0
 24 23  1  0
 25 26  1  6
 25 21  1  0
 26 19  1  0
 27 33  2  0
 27 24  1  0
 28 27  1  0
 29 30  1  0
 29 28  2  0
 30 32  2  0
 31 30  1  0
 32 33  1  0
M  END
$$$$
