lig_410
     RDKit          3D

 24 27  0  0  0  0  0  0  0  0999 V2000
   -0.0230  -18.2240   12.2470 C   0  0  0  0  0  0  0  0  0  0  0  0
    0.1060  -14.8500   11.0020 C   0  0  0  0  0  0  0  0  0  0  0  0
    0.1890  -16.1580   10.8370 N   0  0  0  0  0  0  0  0  0  0  0  0
   -0.0540  -16.7350   12.0660 C   0  0  0  0  0  0  0  0  0  0  0  0
   -0.2610  -15.7500   13.0080 C   0  0  0  0  0  0  0  0  0  0  0  0
   -0.1770  -14.5720   12.3210 N   0  0  0  0  0  0  0  0  0  0  0  0
    0.5230  -11.8350    7.9880 C   0  0  0  0  0  0  0  0  0  0  0  0
    1.2090  -13.0400    7.8520 C   0  0  0  0  0  0  0  0  0  0  0  0
    1.0830  -14.0350    8.8270 C   0  0  0  0  0  0  0  0  0  0  0  0
    0.2700  -13.8370    9.9520 C   0  0  0  0  0  0  0  0  0  0  0  0
   -0.4180  -12.6180   10.0690 C   0  0  0  0  0  0  0  0  0  0  0  0
   -0.2920  -11.6230    9.0960 C   0  0  0  0  0  0  0  0  0  0  0  0
    1.3450  -18.7120   12.5090 N   0  0  0  0  0  0  0  0  0  0  0  0
    1.6070  -20.0520   11.9360 C   0  0  0  0  0  0  0  0  0  0  0  0
    0.8540  -21.2180   12.6210 C   0  0  0  0  0  0  0  0  0  0  0  0
    1.1110  -21.2200   14.0770 N   0  0  0  0  0  0  0  0  0  0  0  0
    0.8620  -19.9130   14.7180 C   0  0  0  0  0  0  0  0  0  0  0  0
    1.6040  -18.7800   13.9640 C   0  0  0  0  0  0  0  0  0  0  0  0
    0.4780  -22.2890   14.7420 C   0  0  0  0  0  0  0  0  0  0  0  0
    0.5110  -23.5670   14.1810 C   0  0  0  0  0  0  0  0  0  0  0  0
   -0.1230  -24.6310   14.8220 C   0  0  0  0  0  0  0  0  0  0  0  0
   -0.7880  -24.3990   16.0150 C   0  0  0  0  0  0  0  0  0  0  0  0
   -0.7950  -23.1080   16.5060 C   0  0  0  0  0  0  0  0  0  0  0  0
   -0.1860  -22.0640   15.8980 N   0  0  0  0  0  0  0  0  0  0  0  0
  1 13  1  0
  2  6  1  0
  3  2  2  0
  3  4  1  0
  4  1  1  0
  4  5  2  0
  6  5  1  0
  7 12  1  0
  8  7  2  0
  8  9  1  0
  9 10  2  0
 10 11  1  0
 10  2  1  0
 12 11  2  0
 13 18  1  0
 14 13  1  0
 14 15  1  0
 15 16  1  0
 16 17  1  0
 16 19  1  0
 18 17  1  0
 19 24  1  0
 20 19  2  0
 20 21  1  0
 21 22  2  0
 22 23  1  0
 24 23  2  0
M  END
$$$$
