lig_070
     RDKit          3D

 22 25  0  0  0  0  0  0  0  0999 V2000
    1.1820    6.4410   18.2410 N   0  0  0  0  0  0  0  0  0  0  0  0
   -0.0140    6.8480   17.6860 C   0  0  0  0  0  0  0  0  0  0  0  0
   -0.0620    8.1040   17.2290 N   0  0  0  0  0  0  0  0  0  0  0  0
   -1.2170    8.5620   16.6860 C   0  0  0  0  0  0  0  0  0  0  0  0
   -2.3220    7.7210   16.6200 C   0  0  0  0  0  0  0  0  0  0  0  0
   -3.6510    7.7180   16.1470 C   0  0  0  0  0  0  0  0  0  0  0  0
   -4.2810    6.5580   16.3630 N   0  0  0  0  0  0  0  0  0  0  0  0
   -3.3440    5.8090   16.9980 N   0  0  0  0  0  0  0  0  0  0  0  0
   -2.1450    6.4560   17.1490 C   0  0  0  0  0  0  0  0  0  0  0  0
   -1.0220    5.9670   17.7000 N   0  0  0  0  0  0  0  0  0  0  0  0
   -1.2500    9.9300   16.2030 C   0  0  0  0  0  0  0  0  0  0  0  0
   -1.5520   11.1610   16.7570 C   0  0  0  0  0  0  0  0  0  0  0  0
   -1.3870   12.1270   15.7330 C   0  0  0  0  0  0  0  0  0  0  0  0
   -0.9910   11.4330   14.6170 C   0  0  0  0  0  0  0  0  0  0  0  0
   -0.9020   10.1080   14.8900 O   0  0  0  0  0  0  0  0  0  0  0  0
   -3.6380    4.4420   17.3930 C   0  0  0  0  0  0  0  0  0  0  0  0
   -5.1230    4.1760   17.3920 C   0  0  0  0  0  0  0  0  0  0  0  0
   -5.6590    3.1270   16.6290 C   0  0  0  0  0  0  0  0  0  0  0  0
   -7.0320    2.8760   16.6390 C   0  0  0  0  0  0  0  0  0  0  0  0
   -7.8810    3.6650   17.4130 C   0  0  0  0  0  0  0  0  0  0  0  0
   -7.3590    4.7030   18.1810 C   0  0  0  0  0  0  0  0  0  0  0  0
   -5.9860    4.9570   18.1730 C   0  0  0  0  0  0  0  0  0  0  0  0
  2 10  1  0
  2  1  1  0
  3  2  2  0
  4  3  1  0
  5  4  2  0
  5  9  1  0
  6  7  2  0
  6  5  1  0
  7  8  1  0
  8  9  1  0
  8 16  1  0
  9 10  2  0
 11  4  1  0
 11 12  2  0
 13 12  1  0
 14 15  1  0
 14 13  2  0
 15 11  1  0
 17 16  1  0
 17 22  1  0
 18 19  1  0
 18 17  2  0
 19 20  2  0
 20 21  1  0
 22 21  2  0
M  END
$$$$
