lig_033
     RDKit          3D

 34 39  0  0  1  0  0  0  0  0999 V2000
   -1.8430    9.3040   16.0010 C   0  0  0  0  0  0  0  0  0  0  0  0
   -2.4450    8.0660   16.0350 N   0  0  0  0  0  0  0  0  0  0  0  0
   -1.6340    7.3560   16.7940 C   0  0  0  0  0  0  0  0  0  0  0  0
   -1.6510    6.0190   17.2950 C   0  0  0  0  0  0  0  0  0  0  0  0
   -0.5860    5.6440   18.0650 C   0  0  0  0  0  0  0  0  0  0  0  0
    0.4740    6.4800   18.4170 N   0  0  0  0  0  0  0  0  0  0  0  0
    0.4870    7.6950   17.9520 C   0  0  0  0  0  0  0  0  0  0  0  0
    1.5020    8.5710   18.2470 N   0  0  0  0  0  0  0  0  0  0  0  0
   -0.5680    8.1300   17.1430 N   0  0  0  0  0  0  0  0  0  0  0  0
   -0.6650    9.3840   16.6400 N   0  0  0  0  0  0  0  0  0  0  0  0
   -2.7760    5.1000   16.9790 C   0  0  0  0  0  0  0  0  0  0  0  0
   -2.5610    3.9430   16.2130 C   0  0  0  0  0  0  0  0  0  0  0  0
   -3.6130    3.0680   15.9070 C   0  0  0  0  0  0  0  0  0  0  0  0
   -4.8960    3.3590   16.3910 C   0  0  0  0  0  0  0  0  0  0  0  0
   -6.0700    2.6650   16.2280 N   0  0  0  0  0  0  0  0  0  0  0  0
   -6.9710    3.3530   16.8900 C   0  0  0  0  0  0  0  0  0  0  0  0
   -6.4290    4.4620   17.4730 N   0  0  0  0  0  0  0  0  0  0  0  0
   -7.1410    5.4230   18.2770 C   0  0  0  0  0  0  0  0  0  0  0  0
   -5.0920    4.5000   17.1640 C   0  0  0  0  0  0  0  0  0  0  0  0
   -4.0580    5.3900   17.4820 C   0  0  0  0  0  0  0  0  0  0  0  0
   -0.4630    4.2710   18.6170 C   0  0  0  0  0  0  0  0  0  0  0  0
   -1.5920    3.5590   19.0550 C   0  0  0  0  0  0  0  0  0  0  0  0
   -1.4540    2.2670   19.5690 C   0  0  0  0  0  0  0  0  0  0  0  0
   -0.1940    1.6850   19.6310 C   0  0  0  0  0  0  0  0  0  0  0  0
   -0.0650    0.4450   20.1210 F   0  0  0  0  0  0  0  0  0  0  0  0
    0.9330    2.3650   19.1870 C   0  0  0  0  0  0  0  0  0  0  0  0
    0.7990    3.6580   18.6760 C   0  0  0  0  0  0  0  0  0  0  0  0
   -2.4360   10.4450   15.2560 C   0  0  0  0  0  0  0  0  0  0  0  0
   -4.5540   12.4030   16.0860 C   0  0  0  0  0  0  0  0  0  0  0  0
   -3.2240   12.4740   16.6930 N   0  0  0  0  0  0  0  0  0  0  0  0
   -2.7710   13.8680   16.8140 C   0  0  0  0  0  0  0  0  0  0  0  0
   -2.0860   14.2050   15.4970 C   0  0  0  0  0  0  0  0  0  0  0  0
   -1.7600   12.8620   14.8570 C   0  0  0  0  0  0  0  0  0  0  0  0
   -2.1570   11.8130   15.9030 C   0  0  2  0  0  0  0  0  0  0  0  0
  1  2  1  0
  1 10  2  0
  2  3  2  0
  3  9  1  0
  3  4  1  0
  4  5  2  0
  5  6  1  0
  5 21  1  0
  7  8  1  0
  7  6  2  0
  9  7  1  0
 10  9  1  0
 11  4  1  0
 11 20  2  0
 12 11  1  0
 13 12  2  0
 13 14  1  0
 14 19  2  0
 15 14  1  0
 15 16  2  0
 16 17  1  0
 17 18  1  0
 19 17  1  0
 19 20  1  0
 21 27  2  0
 21 22  1  0
 22 23  2  0
 23 24  1  0
 24 25  1  0
 26 24  2  0
 27 26  1  0
 28  1  1  0
 29 30  1  0
 30 31  1  0
 32 31  1  0
 33 32  1  0
 33 34  1  0
 34 28  1  6
 34 30  1  0
M  END
$$$$
