lig_019
     RDKit          3D

 30 34  0  0  1  0  0  0  0  0999 V2000
  123.6750  142.2530  101.5590 C   0  0  0  0  0  0  0  0  0  0  0  0
  123.8020  142.6370  100.2190 C   0  0  0  0  0  0  0  0  0  0  0  0
  124.7900  142.0690   99.3920 C   0  0  0  0  0  0  0  0  0  0  0  0
  125.6720  141.1060   99.8840 C   0  0  0  0  0  0  0  0  0  0  0  0
  125.5570  140.7410  101.2120 C   0  0  0  0  0  0  0  0  0  0  0  0
  124.5710  141.3100  102.0450 C   0  0  0  0  0  0  0  0  0  0  0  0
  124.6430  140.6680  103.4000 C   0  0  2  0  0  0  0  0  0  0  0  0
  124.4130  141.4780  104.6710 C   0  0  0  0  0  0  0  0  0  0  0  0
  125.2580  140.9330  105.8450 C   0  0  0  0  0  0  0  0  0  0  0  0
  125.5130  139.4880  105.7210 N   0  0  0  0  0  0  0  0  0  0  0  0
  126.3050  139.1580  104.5080 C   0  0  0  0  0  0  0  0  0  0  0  0
  126.0990  140.1800  103.3940 C   0  0  1  0  0  0  0  0  0  0  0  0
  126.3730  139.7200  101.9590 C   0  0  0  0  0  0  0  0  0  0  0  0
  121.4010  142.2760  102.2460 C   0  0  0  0  0  0  0  0  0  0  0  0
  122.7390  142.7140  102.4380 O   0  0  0  0  0  0  0  0  0  0  0  0
  126.1380  138.8960  106.9150 C   0  0  0  0  0  0  0  0  0  0  0  0
  125.2880  137.7810  107.5370 C   0  0  0  0  0  0  0  0  0  0  0  0
  123.9500  138.2880  108.0740 C   0  0  0  0  0  0  0  0  0  0  0  0
  124.0960  138.9980  109.3460 N   0  0  0  0  0  0  0  0  0  0  0  0
  123.8490  140.3690  109.5780 C   0  0  0  0  0  0  0  0  0  0  0  0
  123.5410  141.1870  108.7320 O   0  0  0  0  0  0  0  0  0  0  0  0
  124.0240  140.6580  111.0140 C   0  0  0  0  0  0  0  0  0  0  0  0
  123.9030  141.8960  111.6240 C   0  0  0  0  0  0  0  0  0  0  0  0
  124.1130  141.9720  113.0060 C   0  0  0  0  0  0  0  0  0  0  0  0
  124.4380  140.8220  113.7500 C   0  0  0  0  0  0  0  0  0  0  0  0
  124.5570  139.5780  113.1260 C   0  0  0  0  0  0  0  0  0  0  0  0
  124.3430  139.5320  111.7610 C   0  0  0  0  0  0  0  0  0  0  0  0
  124.4250  138.1220  110.7460 S   0  0  0  0  0  0  0  0  0  0  0  0
  123.2960  137.2740  111.0520 O   0  0  0  0  0  0  0  0  0  0  0  0
  125.7900  137.6550  110.7160 O   0  0  0  0  0  0  0  0  0  0  0  0
  1  6  1  0
  1 15  1  0
  2  1  2  0
  3  4  2  0
  3  2  1  0
  4  5  1  0
  5 13  1  0
  5  6  2  0
  6  7  1  0
  7  8  1  1
  8  9  1  0
 10  9  1  0
 10 16  1  0
 11 10  1  0
 12 13  1  6
 12  7  1  0
 12 11  1  0
 14 15  1  0
 16 17  1  0
 17 18  1  0
 18 19  1  0
 19 20  1  0
 19 28  1  0
 20 22  1  0
 21 20  2  0
 22 23  2  0
 22 27  1  0
 23 24  1  0
 24 25  2  0
 26 25  1  0
 27 26  2  0
 28 29  2  0
 28 27  1  0
 30 28  2  0
M  END
$$$$
