lig_022
     RDKit          3D

 31 35  0  0  1  0  0  0  0  0999 V2000
  179.6060  166.5610  138.4220 C   0  0  0  0  0  0  0  0  0  0  0  0
  179.4340  168.0250  138.4080 N   0  0  0  0  0  0  0  0  0  0  0  0
  179.4240  168.6020  139.7650 C   0  0  0  0  0  0  0  0  0  0  0  0
  178.6910  169.9460  139.8630 C   0  0  0  0  0  0  0  0  0  0  0  0
  178.8150  170.7330  138.5550 C   0  0  0  0  0  0  0  0  0  0  0  0
  178.2420  169.9160  137.3830 C   0  0  0  0  0  0  0  0  0  0  0  0
  178.2370  168.4090  137.6560 C   0  0  0  0  0  0  0  0  0  0  0  0
  178.2040  172.1000  138.6340 C   0  0  0  0  0  0  0  0  0  0  0  0
  177.1010  172.4000  137.9310 N   0  0  0  0  0  0  0  0  0  0  0  0
  176.8130  173.7230  138.2240 O   0  0  0  0  0  0  0  0  0  0  0  0
  177.7400  174.2100  139.0900 C   0  0  0  0  0  0  0  0  0  0  0  0
  177.7790  175.5010  139.6060 C   0  0  0  0  0  0  0  0  0  0  0  0
  178.8340  175.7670  140.4770 C   0  0  0  0  0  0  0  0  0  0  0  0
  178.9370  176.9900  141.0140 F   0  0  0  0  0  0  0  0  0  0  0  0
  179.7860  174.8030  140.8070 C   0  0  0  0  0  0  0  0  0  0  0  0
  179.7140  173.5110  140.2670 C   0  0  0  0  0  0  0  0  0  0  0  0
  178.6570  173.2170  139.3870 C   0  0  0  0  0  0  0  0  0  0  0  0
  180.3420  166.0240  137.1830 C   0  0  0  0  0  0  0  0  0  0  0  0
  180.0620  163.2230  138.4080 C   0  0  0  0  0  0  0  0  0  0  0  0
  179.5010  163.6200  137.0650 C   0  0  0  0  0  0  0  0  0  0  0  0
  178.8500  162.5900  136.4290 N   0  0  0  0  0  0  0  0  0  0  0  0
  178.3720  162.8150  135.2480 C   0  0  0  0  0  0  0  0  0  0  0  0
  178.4430  164.0240  134.6000 N   0  0  0  0  0  0  0  0  0  0  0  0
  178.9770  165.1220  135.2320 C   0  0  0  0  0  0  0  0  0  0  0  0
  178.9370  166.2600  134.7700 O   0  0  0  0  0  0  0  0  0  0  0  0
  179.6110  164.8620  136.5560 C   0  0  0  0  0  0  0  0  0  0  0  0
  177.7670  164.1750  133.3210 C   0  0  0  0  0  0  0  0  0  0  0  0
  178.1010  163.0270  132.3720 C   0  0  0  0  0  0  0  0  0  0  0  0
  178.1030  161.6550  133.0490 C   0  0  0  0  0  0  0  0  0  0  0  0
  177.6430  161.6920  134.5030 C   0  0  1  0  0  0  0  0  0  0  0  0
  177.8910  160.4220  135.0900 O   0  0  0  0  0  0  0  0  0  0  0  0
  2  1  1  0
  2  3  1  0
  3  4  1  0
  5  8  1  0
  5  4  1  0
  6  7  1  0
  6  5  1  0
  7  2  1  0
  8 17  1  0
  9 10  1  0
  9  8  2  0
 10 11  1  0
 11 17  2  0
 11 12  1  0
 12 13  2  0
 13 15  1  0
 13 14  1  0
 16 15  2  0
 17 16  1  0
 18  1  1  0
 20 19  1  0
 21 20  1  0
 22 21  2  0
 23 24  1  0
 23 22  1  0
 24 26  1  0
 25 24  2  0
 26 20  2  0
 26 18  1  0
 27 23  1  0
 28 29  1  0
 28 27  1  0
 29 30  1  0
 30 31  1  1
 30 22  1  0
M  END
$$$$
