lig_026
     RDKit          3D

 28 30  0  0  0  0  0  0  0  0999 V2000
  122.9910  137.5590  107.5920 O   0  0  0  0  0  0  0  0  0  0  0  0
  123.8040  138.4720  107.4670 C   0  0  0  0  0  0  0  0  0  0  0  0
  124.6250  138.6400  106.3450 N   0  0  0  0  0  0  0  0  0  0  0  0
  124.4760  137.6470  105.2840 C   0  0  0  0  0  0  0  0  0  0  0  0
  124.9150  138.1920  103.9310 C   0  0  0  0  0  0  0  0  0  0  0  0
  126.3240  138.7840  104.0020 C   0  0  0  0  0  0  0  0  0  0  0  0
  127.1990  137.7700  104.2920 F   0  0  0  0  0  0  0  0  0  0  0  0
  126.4230  139.8140  105.1300 C   0  0  0  0  0  0  0  0  0  0  0  0
  125.9650  139.2170  106.4540 C   0  0  0  0  0  0  0  0  0  0  0  0
  123.8750  139.4660  108.5610 C   0  0  0  0  0  0  0  0  0  0  0  0
  123.5180  140.8030  108.3310 C   0  0  0  0  0  0  0  0  0  0  0  0
  123.5570  141.7170  109.3840 C   0  0  0  0  0  0  0  0  0  0  0  0
  123.9350  141.2880  110.6560 C   0  0  0  0  0  0  0  0  0  0  0  0
  123.9660  142.1870  111.6510 F   0  0  0  0  0  0  0  0  0  0  0  0
  124.2660  139.9540  110.8890 C   0  0  0  0  0  0  0  0  0  0  0  0
  124.7230  139.4270  112.4630 Cl  0  0  0  0  0  0  0  0  0  0  0  0
  124.2310  139.0330  109.8430 C   0  0  0  0  0  0  0  0  0  0  0  0
  126.7690  139.4150  102.6620 C   0  0  0  0  0  0  0  0  0  0  0  0
  127.2170  140.8070  102.8240 N   0  0  0  0  0  0  0  0  0  0  0  0
  127.2630  141.5040  101.5260 C   0  0  0  0  0  0  0  0  0  0  0  0
  125.8850  141.5200  100.8290 C   0  0  0  0  0  0  0  0  0  0  0  0
  124.8940  142.3190  101.5570 N   0  0  0  0  0  0  0  0  0  0  0  0
  123.9200  141.7160  102.3530 C   0  0  0  0  0  0  0  0  0  0  0  0
  123.0290  140.8140  101.7550 C   0  0  0  0  0  0  0  0  0  0  0  0
  122.0620  140.1360  102.5030 C   0  0  0  0  0  0  0  0  0  0  0  0
  121.9890  140.3280  103.8790 C   0  0  0  0  0  0  0  0  0  0  0  0
  122.8920  141.1850  104.5000 C   0  0  0  0  0  0  0  0  0  0  0  0
  123.8570  141.8610  103.7440 C   0  0  0  0  0  0  0  0  0  0  0  0
  2  1  2  0
  2 10  1  0
  3  9  1  0
  3  2  1  0
  4  3  1  0
  5  6  1  0
  5  4  1  0
  6  7  1  0
  6  8  1  0
  8  9  1  0
 10 17  2  0
 11 10  1  0
 11 12  2  0
 12 13  1  0
 13 15  2  0
 13 14  1  0
 15 16  1  0
 17 15  1  0
 18 19  1  0
 18  6  1  0
 20 19  1  0
 21 20  1  0
 21 22  1  0
 22 23  1  0
 23 28  1  0
 24 23  2  0
 24 25  1  0
 25 26  2  0
 26 27  1  0
 28 27  2  0
M  END
$$$$
