lig_403
     RDKit          3D

 22 25  0  0  0  0  0  0  0  0999 V2000
   -0.0530   13.0690   15.0330 N   0  0  0  0  0  0  0  0  0  0  0  0
    0.3430   11.8980   15.6340 C   0  0  0  0  0  0  0  0  0  0  0  0
   -0.7910   11.1440   15.6760 C   0  0  0  0  0  0  0  0  0  0  0  0
   -1.8060   11.9100   15.0910 C   0  0  0  0  0  0  0  0  0  0  0  0
   -3.1400   11.4840   14.9340 N   0  0  0  0  0  0  0  0  0  0  0  0
   -3.4280   10.2850   15.3890 C   0  0  0  0  0  0  0  0  0  0  0  0
   -4.7120    9.8010   15.2760 N   0  0  0  0  0  0  0  0  0  0  0  0
   -2.4620    9.4340   15.9920 N   0  0  0  0  0  0  0  0  0  0  0  0
   -2.6980    8.1750   16.4220 N   0  0  0  0  0  0  0  0  0  0  0  0
   -1.4800    7.8250   16.8850 C   0  0  0  0  0  0  0  0  0  0  0  0
   -0.5000    8.7980   16.7360 N   0  0  0  0  0  0  0  0  0  0  0  0
   -1.1580    9.7720   16.1700 C   0  0  0  0  0  0  0  0  0  0  0  0
   -1.3650   13.0940   14.6830 N   0  0  0  0  0  0  0  0  0  0  0  0
   -1.1850    6.5280   17.4910 C   0  0  0  0  0  0  0  0  0  0  0  0
    0.0730    6.2610   18.0530 C   0  0  0  0  0  0  0  0  0  0  0  0
    0.3470    5.0160   18.6320 C   0  0  0  0  0  0  0  0  0  0  0  0
   -0.6370    4.0310   18.6510 C   0  0  0  0  0  0  0  0  0  0  0  0
   -0.3020    2.5010   19.3620 Cl  0  0  0  0  0  0  0  0  0  0  0  0
   -1.8910    4.2770   18.0980 C   0  0  0  0  0  0  0  0  0  0  0  0
   -2.1640    5.5210   17.5200 C   0  0  0  0  0  0  0  0  0  0  0  0
    1.1010   15.0190   15.9950 C   0  0  0  0  0  0  0  0  0  0  0  0
    0.7860   14.2170   14.7460 C   0  0  0  0  0  0  0  0  0  0  0  0
  1  2  1  0
  2  3  2  0
  3 12  1  0
  4  3  1  0
  5  4  1  0
  5  6  2  0
  6  8  1  0
  7  6  1  0
  8 12  1  0
  8  9  1  0
  9 10  2  0
 10 14  1  0
 11 10  1  0
 12 11  2  0
 13  1  1  0
 13  4  2  0
 14 20  2  0
 14 15  1  0
 15 16  2  0
 16 17  1  0
 17 18  1  0
 19 17  2  0
 20 19  1  0
 22  1  1  0
 22 21  1  0
M  END
$$$$
