lig_327
     RDKit          3D

 34 37  0  0  0  0  0  0  0  0999 V2000
   -1.7060  -21.5870   17.2640 C   0  0  0  0  0  0  0  0  0  0  0  0
   -3.0890  -21.4250   17.9750 C   0  0  0  0  0  0  0  0  0  0  0  0
   -3.6080  -22.4790   18.7610 C   0  0  0  0  0  0  0  0  0  0  0  0
   -4.8390  -22.3770   19.4160 C   0  0  0  0  0  0  0  0  0  0  0  0
   -5.5940  -21.2180   19.3000 C   0  0  0  0  0  0  0  0  0  0  0  0
   -5.1220  -20.1690   18.5200 C   0  0  0  0  0  0  0  0  0  0  0  0
   -3.8880  -20.2730   17.8650 C   0  0  0  0  0  0  0  0  0  0  0  0
   -1.6430  -22.6940   16.1410 C   0  0  0  0  0  0  0  0  0  0  0  0
   -2.7350  -22.9090   15.2700 C   0  0  0  0  0  0  0  0  0  0  0  0
   -2.6940  -23.8640   14.2510 C   0  0  0  0  0  0  0  0  0  0  0  0
   -1.5480  -24.6260   14.0580 C   0  0  0  0  0  0  0  0  0  0  0  0
   -0.4450  -24.4230   14.8780 C   0  0  0  0  0  0  0  0  0  0  0  0
   -0.4890  -23.4650   15.8990 C   0  0  0  0  0  0  0  0  0  0  0  0
    0.9490  -21.0850   20.1200 C   0  0  0  0  0  0  0  0  0  0  0  0
   -0.2070  -20.8570   19.2650 N   0  0  0  0  0  0  0  0  0  0  0  0
   -0.9430  -19.6280   19.5420 C   0  0  0  0  0  0  0  0  0  0  0  0
   -0.5520  -21.8370   18.3300 C   0  0  0  0  0  0  0  0  0  0  0  0
    0.0390  -22.9270   18.3550 O   0  0  0  0  0  0  0  0  0  0  0  0
   -1.3540  -20.2380   16.5040 C   0  0  0  0  0  0  0  0  0  0  0  0
    0.1070  -20.0270   16.0580 C   0  0  0  0  0  0  0  0  0  0  0  0
    0.2620  -20.1970   14.5990 N   0  0  0  0  0  0  0  0  0  0  0  0
   -1.0500  -20.0290   13.9250 C   0  0  0  0  0  0  0  0  0  0  0  0
   -0.9290  -19.5620   12.4580 C   0  0  0  0  0  0  0  0  0  0  0  0
   -0.3450  -18.2100   12.4150 N   0  0  0  0  0  0  0  0  0  0  0  0
    0.6930  -17.9420   13.4390 C   0  0  0  0  0  0  0  0  0  0  0  0
    1.2640  -19.2530   14.0350 C   0  0  0  0  0  0  0  0  0  0  0  0
   -0.2380  -17.5160   11.2040 C   0  0  0  0  0  0  0  0  0  0  0  0
   -0.4640  -18.1790    9.9810 C   0  0  0  0  0  0  0  0  0  0  0  0
   -0.3450  -17.5280    8.7500 C   0  0  0  0  0  0  0  0  0  0  0  0
   -0.0030  -16.1840    8.7060 C   0  0  0  0  0  0  0  0  0  0  0  0
    0.2120  -15.4840    9.8930 C   0  0  0  0  0  0  0  0  0  0  0  0
    0.6170  -13.8050    9.7490 Cl  0  0  0  0  0  0  0  0  0  0  0  0
    0.0910  -16.1340   11.1380 C   0  0  0  0  0  0  0  0  0  0  0  0
    0.2680  -15.2010   12.6010 Cl  0  0  0  0  0  0  0  0  0  0  0  0
  1  2  1  0
  1 17  1  0
  2  3  2  0
  3  4  1  0
  5  4  2  0
  6  5  1  0
  7  2  1  0
  7  6  2  0
  8  1  1  0
  9  8  2  0
 10  9  1  0
 11 10  2  0
 11 12  1  0
 12 13  2  0
 13  8  1  0
 15 16  1  0
 15 14  1  0
 17 18  2  0
 17 15  1  0
 19  1  1  0
 20 19  1  0
 21 20  1  0
 22 21  1  0
 23 22  1  0
 24 23  1  0
 24 25  1  0
 25 26  1  0
 26 21  1  0
 27 24  1  0
 28 27  2  0
 29 28  1  0
 30 29  2  0
 30 31  1  0
 31 33  2  0
 32 31  1  0
 33 27  1  0
 33 34  1  0
M  END
$$$$
