lig_005
     RDKit          3D

 33 38  0  0  0  0  0  0  0  0999 V2000
  126.3050  136.4410  106.5630 N   0  0  0  0  0  0  0  0  0  0  0  0
  126.9550  137.7050  106.9820 C   0  0  0  0  0  0  0  0  0  0  0  0
  126.2490  139.0130  106.5440 C   0  0  0  0  0  0  0  0  0  0  0  0
  125.9500  138.9720  105.1080 N   0  0  0  0  0  0  0  0  0  0  0  0
  125.3880  137.7170  104.5830 C   0  0  0  0  0  0  0  0  0  0  0  0
  125.1320  136.6830  105.7050 C   0  0  0  0  0  0  0  0  0  0  0  0
  125.5060  140.1650  104.5280 C   0  0  0  0  0  0  0  0  0  0  0  0
  124.9530  141.1090  105.4070 C   0  0  0  0  0  0  0  0  0  0  0  0
  124.4740  142.3250  104.9420 C   0  0  0  0  0  0  0  0  0  0  0  0
  124.5420  142.6120  103.5810 C   0  0  0  0  0  0  0  0  0  0  0  0
  125.0780  141.7160  102.6700 C   0  0  0  0  0  0  0  0  0  0  0  0
  125.1010  142.0820  101.3760 N   0  0  0  0  0  0  0  0  0  0  0  0
  125.6170  141.2310  100.4630 C   0  0  0  0  0  0  0  0  0  0  0  0
  125.6250  141.6770   99.0330 C   0  0  0  0  0  0  0  0  0  0  0  0
  126.1260  139.9910  100.8090 C   0  0  0  0  0  0  0  0  0  0  0  0
  126.1000  139.6160  102.1490 C   0  0  0  0  0  0  0  0  0  0  0  0
  125.5700  140.4730  103.1360 C   0  0  0  0  0  0  0  0  0  0  0  0
  125.9800  135.5570  107.6910 C   0  0  0  0  0  0  0  0  0  0  0  0
  124.7500  135.9960  108.5110 C   0  0  0  0  0  0  0  0  0  0  0  0
  123.7330  142.6960  113.6200 C   0  0  0  0  0  0  0  0  0  0  0  0
  124.0010  141.5570  112.7150 C   0  0  0  0  0  0  0  0  0  0  0  0
  124.6350  140.3610  112.9870 C   0  0  0  0  0  0  0  0  0  0  0  0
  124.5950  139.6550  111.8140 N   0  0  0  0  0  0  0  0  0  0  0  0
  123.9900  140.4540  110.8820 C   0  0  0  0  0  0  0  0  0  0  0  0
  123.6090  141.6060  111.3980 N   0  0  0  0  0  0  0  0  0  0  0  0
  123.9340  139.9930  109.4750 C   0  0  0  0  0  0  0  0  0  0  0  0
  123.8560  138.5570  109.3980 O   0  0  0  0  0  0  0  0  0  0  0  0
  124.6960  137.8700  110.2400 C   0  0  0  0  0  0  0  0  0  0  0  0
  125.1070  136.5850  109.8580 C   0  0  0  0  0  0  0  0  0  0  0  0
  125.8980  135.8380  110.7490 C   0  0  0  0  0  0  0  0  0  0  0  0
  126.2530  136.3510  112.0000 C   0  0  0  0  0  0  0  0  0  0  0  0
  125.8330  137.6230  112.3840 C   0  0  0  0  0  0  0  0  0  0  0  0
  125.0620  138.3740  111.4960 C   0  0  0  0  0  0  0  0  0  0  0  0
  1  2  1  0
  1 18  1  0
  3  2  1  0
  4  3  1  0
  5  4  1  0
  5  6  1  0
  6  1  1  0
  7  4  1  0
  7  8  1  0
  9  8  2  0
 10  9  1  0
 11 17  1  0
 11 10  2  0
 12 11  1  0
 13 15  1  0
 13 12  2  0
 14 13  1  0
 15 16  2  0
 16 17  1  0
 17  7  2  0
 18 19  1  0
 19 29  1  0
 21 22  2  0
 21 20  1  0
 23 22  1  0
 24 25  2  0
 24 23  1  0
 25 21  1  0
 26 24  1  0
 27 26  1  0
 27 28  1  0
 28 33  1  0
 29 28  2  0
 29 30  1  0
 30 31  2  0
 31 32  1  0
 33 23  1  0
 33 32  2  0
M  END
$$$$
