lig_004
     RDKit          3D

 30 34  0  0  0  0  0  0  0  0999 V2000
  125.5960  137.6930  107.9270 C   0  0  0  0  0  0  0  0  0  0  0  0
  125.5540  138.3250  106.5940 N   0  0  0  0  0  0  0  0  0  0  0  0
  126.4470  137.6710  105.6330 C   0  0  0  0  0  0  0  0  0  0  0  0
  126.1550  138.1800  104.2170 C   0  0  0  0  0  0  0  0  0  0  0  0
  125.7610  139.6680  104.1850 C   0  0  0  0  0  0  0  0  0  0  0  0
  126.3510  140.3980  105.3950 C   0  0  0  0  0  0  0  0  0  0  0  0
  125.8740  139.7610  106.7070 C   0  0  0  0  0  0  0  0  0  0  0  0
  126.1170  140.3120  102.8780 C   0  0  0  0  0  0  0  0  0  0  0  0
  127.3370  140.1520  102.3440 N   0  0  0  0  0  0  0  0  0  0  0  0
  127.3260  140.8630  101.1550 O   0  0  0  0  0  0  0  0  0  0  0  0
  126.1070  141.4370  100.9790 C   0  0  0  0  0  0  0  0  0  0  0  0
  125.7170  142.2250   99.9000 C   0  0  0  0  0  0  0  0  0  0  0  0
  124.4040  142.7090   99.9310 C   0  0  0  0  0  0  0  0  0  0  0  0
  123.5470  142.4090  100.9940 C   0  0  0  0  0  0  0  0  0  0  0  0
  123.9750  141.6110  102.0660 C   0  0  0  0  0  0  0  0  0  0  0  0
  125.2910  141.1170  102.0500 C   0  0  0  0  0  0  0  0  0  0  0  0
  124.2090  137.5120  108.5740 C   0  0  0  0  0  0  0  0  0  0  0  0
  124.4170  140.2500  115.5700 C   0  0  0  0  0  0  0  0  0  0  0  0
  124.3210  140.0920  114.0930 C   0  0  0  0  0  0  0  0  0  0  0  0
  124.5400  138.9690  113.3290 C   0  0  0  0  0  0  0  0  0  0  0  0
  124.3360  139.2870  111.9500 C   0  0  0  0  0  0  0  0  0  0  0  0
  124.0190  140.6440  111.9170 C   0  0  0  0  0  0  0  0  0  0  0  0
  123.9860  141.1040  113.2280 N   0  0  0  0  0  0  0  0  0  0  0  0
  123.6710  142.4670  113.6140 C   0  0  0  0  0  0  0  0  0  0  0  0
  123.7430  141.5780  110.7810 C   0  0  0  0  0  0  0  0  0  0  0  0
  123.9710  140.9800  109.4050 C   0  0  0  0  0  0  0  0  0  0  0  0
  123.1840  139.6910  109.2320 C   0  0  0  0  0  0  0  0  0  0  0  0
  123.9550  138.5180  109.6130 N   0  0  0  0  0  0  0  0  0  0  0  0
  124.5150  138.3000  110.8740 C   0  0  0  0  0  0  0  0  0  0  0  0
  125.1550  137.2710  111.1000 O   0  0  0  0  0  0  0  0  0  0  0  0
  1 17  1  0
  2  7  1  0
  2  1  1  0
  3  2  1  0
  4  3  1  0
  5  4  1  0
  5  6  1  0
  6  7  1  0
  8  5  1  0
  9  8  2  0
 10  9  1  0
 11 10  1  0
 11 16  1  0
 12 13  1  0
 12 11  2  0
 13 14  2  0
 14 15  1  0
 16 15  2  0
 16  8  1  0
 17 28  1  0
 19 18  1  0
 20 19  2  0
 21 20  1  0
 22 21  2  0
 22 23  1  0
 23 24  1  0
 23 19  1  0
 25 22  1  0
 26 25  1  0
 27 26  1  0
 27 28  1  0
 28 29  1  0
 29 30  2  0
 29 21  1  0
M  END
$$$$
