lig_381
     RDKit          3D

 25 28  0  0  0  0  0  0  0  0999 V2000
   -3.4710    7.5220   16.4230 N   0  0  0  0  0  0  0  0  0  0  0  0
   -2.1780    7.2300   16.7880 C   0  0  0  0  0  0  0  0  0  0  0  0
   -1.4970    6.0430   17.1670 C   0  0  0  0  0  0  0  0  0  0  0  0
   -0.1810    6.3990   17.4190 C   0  0  0  0  0  0  0  0  0  0  0  0
   -0.0430    7.7480   17.2100 N   0  0  0  0  0  0  0  0  0  0  0  0
   -1.2490    8.2550   16.8260 C   0  0  0  0  0  0  0  0  0  0  0  0
   -1.5800    9.6140   16.4940 C   0  0  0  0  0  0  0  0  0  0  0  0
   -0.7950   10.5550   16.5160 O   0  0  0  0  0  0  0  0  0  0  0  0
   -2.9060    9.8300   16.1180 N   0  0  0  0  0  0  0  0  0  0  0  0
   -3.5740   10.9660   15.7280 C   0  0  0  0  0  0  0  0  0  0  0  0
   -2.9630   12.3090   15.6300 C   0  0  0  0  0  0  0  0  0  0  0  0
   -4.8270   10.6510   15.4590 N   0  0  0  0  0  0  0  0  0  0  0  0
   -4.9900    9.3000   15.6740 N   0  0  0  0  0  0  0  0  0  0  0  0
   -3.8380    8.8050   16.0750 C   0  0  0  0  0  0  0  0  0  0  0  0
   -1.9340    4.6710   17.3170 C   0  0  0  0  0  0  0  0  0  0  0  0
   -2.4690    3.9790   16.2240 C   0  0  0  0  0  0  0  0  0  0  0  0
   -2.8910    2.6570   16.3720 C   0  0  0  0  0  0  0  0  0  0  0  0
   -2.7760    2.0210   17.6080 C   0  0  0  0  0  0  0  0  0  0  0  0
   -2.2340    2.7040   18.6970 C   0  0  0  0  0  0  0  0  0  0  0  0
   -1.8110    4.0260   18.5530 C   0  0  0  0  0  0  0  0  0  0  0  0
   -4.5070    6.4910   16.2910 C   0  0  0  0  0  0  0  0  0  0  0  0
   -5.2980    6.3440   17.5950 C   0  0  0  0  0  0  0  0  0  0  0  0
   -5.5460    4.8860   17.9910 C   0  0  0  0  0  0  0  0  0  0  0  0
   -7.6390    3.5960   17.4500 C   0  0  0  0  0  0  0  0  0  0  0  0
   -6.2990    4.0880   16.9260 C   0  0  0  0  0  0  0  0  0  0  0  0
  1  2  1  0
  2  6  2  0
  2  3  1  0
  3 15  1  0
  3  4  2  0
  5  4  1  0
  6  5  1  0
  7  8  2  0
  7  6  1  0
  9  7  1  0
 10  9  1  0
 11 10  1  0
 12 13  1  0
 12 10  2  0
 13 14  2  0
 14  9  1  0
 14  1  1  0
 15 20  1  0
 16 17  1  0
 16 15  2  0
 17 18  2  0
 18 19  1  0
 20 19  2  0
 21  1  1  0
 21 22  1  0
 22 23  1  0
 25 24  1  0
 25 23  1  0
M  END
$$$$
