lig_087
     RDKit          3D

 31 35  0  0  0  0  0  0  0  0999 V2000
   -5.3650    9.4690   14.8870 N   0  0  0  0  0  0  0  0  0  0  0  0
   -4.1220    9.2910   15.4480 C   0  0  0  0  0  0  0  0  0  0  0  0
   -3.3090   10.3640   15.4940 N   0  0  0  0  0  0  0  0  0  0  0  0
   -2.0650   10.2300   16.0360 C   0  0  0  0  0  0  0  0  0  0  0  0
   -1.6910    9.0200   16.5450 C   0  0  0  0  0  0  0  0  0  0  0  0
   -2.6110    7.9900   16.4710 C   0  0  0  0  0  0  0  0  0  0  0  0
   -3.8330    8.0830   15.9370 N   0  0  0  0  0  0  0  0  0  0  0  0
   -2.0750    6.7930   17.0710 C   0  0  0  0  0  0  0  0  0  0  0  0
   -2.6080    5.5270   17.2290 C   0  0  0  0  0  0  0  0  0  0  0  0
   -1.8370    4.5440   17.8690 C   0  0  0  0  0  0  0  0  0  0  0  0
   -0.5440    4.8470   18.3390 C   0  0  0  0  0  0  0  0  0  0  0  0
   -0.0040    6.1290   18.1800 C   0  0  0  0  0  0  0  0  0  0  0  0
   -0.7900    7.0700   17.5470 C   0  0  0  0  0  0  0  0  0  0  0  0
   -0.5010    8.4870   17.2380 C   0  0  0  0  0  0  0  0  0  0  0  0
    0.5270    9.0640   17.5190 O   0  0  0  0  0  0  0  0  0  0  0  0
   -1.2470   11.4530   16.0220 C   0  0  0  0  0  0  0  0  0  0  0  0
   -1.6530   12.5860   16.7530 C   0  0  0  0  0  0  0  0  0  0  0  0
   -0.9030   13.7660   16.7480 C   0  0  0  0  0  0  0  0  0  0  0  0
    0.2700   13.8400   16.0050 C   0  0  0  0  0  0  0  0  0  0  0  0
    0.6870   12.7390   15.2630 C   0  0  0  0  0  0  0  0  0  0  0  0
   -0.0670   11.5610   15.2680 C   0  0  0  0  0  0  0  0  0  0  0  0
   -2.4570    3.3270   17.9730 O   0  0  0  0  0  0  0  0  0  0  0  0
   -2.2270    2.3840   16.9220 C   0  0  0  0  0  0  0  0  0  0  0  0
   -3.4970    2.3140   16.0770 C   0  0  0  0  0  0  0  0  0  0  0  0
   -4.7620    2.6540   16.8720 C   0  0  0  0  0  0  0  0  0  0  0  0
   -5.8020    3.3380   16.0890 N   0  0  0  0  0  0  0  0  0  0  0  0
   -7.1520    2.8670   16.4440 C   0  0  0  0  0  0  0  0  0  0  0  0
   -7.6460    3.3590   17.8070 C   0  0  0  0  0  0  0  0  0  0  0  0
   -7.5660    4.8790   17.9080 C   0  0  0  0  0  0  0  0  0  0  0  0
   -6.1790    5.3800   17.5190 C   0  0  0  0  0  0  0  0  0  0  0  0
   -5.7400    4.8070   16.1690 C   0  0  0  0  0  0  0  0  0  0  0  0
  1  2  1  0
  2  3  2  0
  2  7  1  0
  3  4  1  0
  4  5  2  0
  5 14  1  0
  6  5  1  0
  6  8  1  0
  7  6  2  0
  8  9  1  0
  8 13  2  0
  9 10  2  0
 10 22  1  0
 10 11  1  0
 12 11  2  0
 13 12  1  0
 14 15  2  0
 14 13  1  0
 16  4  1  0
 16 17  2  0
 18 17  1  0
 19 18  2  0
 20 21  2  0
 20 19  1  0
 21 16  1  0
 23 22  1  0
 24 25  1  0
 24 23  1  0
 26 31  1  0
 26 27  1  0
 26 25  1  0
 27 28  1  0
 28 29  1  0
 30 29  1  0
 31 30  1  0
M  END
$$$$
