lig_000
     RDKit          3D

 30 33  0  0  0  0  0  0  0  0999 V2000
  122.0700  140.6760  101.0190 C   0  0  0  0  0  0  0  0  0  0  0  0
  121.9800  140.5890  102.5510 C   0  0  0  0  0  0  0  0  0  0  0  0
  123.3790  137.8220  104.6000 N   0  0  0  0  0  0  0  0  0  0  0  0
  123.4230  137.8400  103.1270 C   0  0  0  0  0  0  0  0  0  0  0  0
  122.0120  138.1210  102.5520 C   0  0  0  0  0  0  0  0  0  0  0  0
  121.3590  139.3540  103.0520 N   0  0  0  0  0  0  0  0  0  0  0  0
  121.3830  139.3110  104.5370 C   0  0  0  0  0  0  0  0  0  0  0  0
  122.7690  139.0460  105.1760 C   0  0  0  0  0  0  0  0  0  0  0  0
  124.5560  137.3910  106.7190 C   0  0  0  0  0  0  0  0  0  0  0  0
  125.7200  137.0700  107.4270 C   0  0  0  0  0  0  0  0  0  0  0  0
  126.8750  136.7020  106.7440 C   0  0  0  0  0  0  0  0  0  0  0  0
  126.8640  136.6660  105.3540 C   0  0  0  0  0  0  0  0  0  0  0  0
  125.7080  137.0150  104.6460 C   0  0  0  0  0  0  0  0  0  0  0  0
  124.5290  137.4100  105.3030 C   0  0  0  0  0  0  0  0  0  0  0  0
  123.8560  138.4050  108.6830 C   0  0  0  0  0  0  0  0  0  0  0  0
  123.4680  137.6990  107.5050 O   0  0  0  0  0  0  0  0  0  0  0  0
  122.3120  142.1020  100.5110 C   0  0  0  0  0  0  0  0  0  0  0  0
  123.3740  142.1200   99.4070 C   0  0  0  0  0  0  0  0  0  0  0  0
  124.7310  142.6510   99.8840 C   0  0  0  0  0  0  0  0  0  0  0  0
  125.6920  141.5930  100.1830 N   0  0  0  0  0  0  0  0  0  0  0  0
  125.9150  141.3020  101.5360 C   0  0  0  0  0  0  0  0  0  0  0  0
  126.8650  140.3350  101.8460 C   0  0  0  0  0  0  0  0  0  0  0  0
  127.0880  139.9950  103.1770 C   0  0  0  0  0  0  0  0  0  0  0  0
  126.3470  140.6210  104.1800 C   0  0  0  0  0  0  0  0  0  0  0  0
  126.5310  140.3170  105.5410 C   0  0  0  0  0  0  0  0  0  0  0  0
  125.7680  140.9600  106.5140 C   0  0  0  0  0  0  0  0  0  0  0  0
  124.8220  141.9030  106.1300 C   0  0  0  0  0  0  0  0  0  0  0  0
  124.6430  142.2000  104.7760 C   0  0  0  0  0  0  0  0  0  0  0  0
  125.3910  141.5760  103.7850 C   0  0  0  0  0  0  0  0  0  0  0  0
  125.1810  141.8990  102.4960 N   0  0  0  0  0  0  0  0  0  0  0  0
  1  2  1  0
  2  6  1  0
  3  8  1  0
  3 14  1  0
  4  3  1  0
  5  6  1  0
  5  4  1  0
  6  7  1  0
  7  8  1  0
  9 10  2  0
  9 16  1  0
 11 10  1  0
 12 11  2  0
 13 14  2  0
 13 12  1  0
 14  9  1  0
 16 15  1  0
 17  1  1  0
 18 19  1  0
 18 17  1  0
 19 20  1  0
 20 21  1  0
 21 22  1  0
 21 30  2  0
 22 23  2  0
 23 24  1  0
 24 25  2  0
 25 26  1  0
 27 26  2  0
 28 27  1  0
 29 24  1  0
 29 28  2  0
 30 29  1  0
M  END
$$$$
