lig_016
     RDKit          3D

 31 36  0  0  1  0  0  0  0  0999 V2000
  187.7430  176.2320  172.1650 C   0  0  0  0  0  0  0  0  0  0  0  0
  188.4900  176.7860  173.2000 C   0  0  0  0  0  0  0  0  0  0  0  0
  188.3470  176.2940  174.5000 C   0  0  0  0  0  0  0  0  0  0  0  0
  187.4660  175.2380  174.7830 C   0  0  0  0  0  0  0  0  0  0  0  0
  186.7210  174.6470  173.7350 C   0  0  0  0  0  0  0  0  0  0  0  0
  186.8610  175.1790  172.4480 C   0  0  0  0  0  0  0  0  0  0  0  0
  185.7570  173.5050  174.0550 C   0  0  2  0  0  0  0  0  0  0  0  0
  184.3820  174.1730  174.3890 C   0  0  0  0  0  0  0  0  0  0  0  0
  184.3750  174.9030  175.7360 C   0  0  0  0  0  0  0  0  0  0  0  0
  184.9650  174.0810  176.7980 N   0  0  0  0  0  0  0  0  0  0  0  0
  184.8610  174.7370  178.0980 C   0  0  0  0  0  0  0  0  0  0  0  0
  186.3350  173.6090  176.4830 C   0  0  2  0  0  0  0  0  0  0  0  0
  187.3570  174.7610  176.2240 C   0  0  0  0  0  0  0  0  0  0  0  0
  186.2930  172.6710  175.2530 C   0  0  2  0  0  0  0  0  0  0  0  0
  187.6960  172.0210  174.9550 C   0  0  0  0  0  0  0  0  0  0  0  0
  188.0620  171.8430  173.4780 C   0  0  0  0  0  0  0  0  0  0  0  0
  186.8790  171.7980  172.5360 C   0  0  0  0  0  0  0  0  0  0  0  0
  186.9910  171.2930  171.4150 O   0  0  0  0  0  0  0  0  0  0  0  0
  185.5560  172.3530  173.0400 C   0  0  1  0  0  0  0  0  0  0  0  0
  184.9600  171.2310  173.8890 C   0  0  0  0  0  0  0  0  0  0  0  0
  184.2880  170.1830  173.3820 C   0  0  0  0  0  0  0  0  0  0  0  0
  185.2660  171.5060  175.3460 C   0  0  0  0  0  0  0  0  0  0  0  0
  183.7220  169.0920  174.1780 C   0  0  0  0  0  0  0  0  0  0  0  0
  182.5430  169.2610  174.9130 C   0  0  0  0  0  0  0  0  0  0  0  0
  182.0140  168.2000  175.6520 C   0  0  0  0  0  0  0  0  0  0  0  0
  182.6570  166.9630  175.6550 C   0  0  0  0  0  0  0  0  0  0  0  0
  183.8260  166.7850  174.9170 C   0  0  0  0  0  0  0  0  0  0  0  0
  184.3550  167.8450  174.1780 C   0  0  0  0  0  0  0  0  0  0  0  0
  187.4210  177.9780  170.5800 C   0  0  0  0  0  0  0  0  0  0  0  0
  187.7700  176.6250  170.8500 O   0  0  0  0  0  0  0  0  0  0  0  0
  186.1080  174.6670  171.4250 O   0  0  0  0  0  0  0  0  0  0  0  0
  1  6  2  0
  1  2  1  0
  2  3  2  0
  3  4  1  0
  4 13  1  0
  5  7  1  0
  5  4  2  0
  6  5  1  0
  7  8  1  1
  7 14  1  0
  8  9  1  0
  9 10  1  0
 10 11  1  0
 12 13  1  6
 12 10  1  0
 14 15  1  6
 14 22  1  0
 14 12  1  0
 16 15  1  0
 17 16  1  0
 18 17  2  0
 19 17  1  1
 19 20  1  0
 19  7  1  0
 20 22  1  0
 21 20  2  0
 21 23  1  0
 23 28  1  0
 23 24  2  0
 24 25  1  0
 25 26  2  0
 27 26  1  0
 28 27  2  0
 29 30  1  0
 30  1  1  0
 31  6  1  0
M  END
$$$$
