lig_026
     RDKit          3D

 21 23  0  0  0  0  0  0  0  0999 V2000
    7.7150    5.0720  -12.3920 C   0  0  0  0  0  0  0  0  0  0  0  0
    8.1410    5.8730  -11.4490 N   0  0  0  0  0  0  0  0  0  0  0  0
    9.4050    6.2670  -11.8450 C   0  0  0  0  0  0  0  0  0  0  0  0
   10.3500    7.1250  -11.2350 C   0  0  0  0  0  0  0  0  0  0  0  0
   11.5820    7.3240  -11.8810 C   0  0  0  0  0  0  0  0  0  0  0  0
   11.8730    6.7080  -13.1000 C   0  0  0  0  0  0  0  0  0  0  0  0
   10.9510    5.8630  -13.7210 C   0  0  0  0  0  0  0  0  0  0  0  0
    9.7330    5.6680  -13.0640 C   0  0  0  0  0  0  0  0  0  0  0  0
    8.6310    4.9150  -13.3860 N   0  0  0  0  0  0  0  0  0  0  0  0
    6.1890    4.2720  -12.4340 S   0  0  0  0  0  0  0  0  0  0  0  0
   10.2190    7.8070  -10.0330 O   0  0  0  0  0  0  0  0  0  0  0  0
   11.4330    8.3350   -9.4860 C   0  0  0  0  0  0  0  0  0  0  0  0
   11.1000    8.9780   -8.1310 C   0  0  0  0  0  0  0  0  0  0  0  0
   12.2140    9.0730   -7.1790 N   0  0  0  0  0  0  0  0  0  0  0  0
   11.8730    9.7170   -5.9080 C   0  0  0  0  0  0  0  0  0  0  0  0
   11.9640    8.7940   -4.7160 C   0  0  0  0  0  0  0  0  0  0  0  0
   11.4660    7.4840   -4.7890 C   0  0  0  0  0  0  0  0  0  0  0  0
   11.5390    6.6350   -3.6840 C   0  0  0  0  0  0  0  0  0  0  0  0
   12.1100    7.0850   -2.4950 C   0  0  0  0  0  0  0  0  0  0  0  0
   12.6070    8.3830   -2.4090 C   0  0  0  0  0  0  0  0  0  0  0  0
   12.5350    9.2350   -3.5130 C   0  0  0  0  0  0  0  0  0  0  0  0
  1  2  2  0
  3  2  1  0
  3  4  2  0
  4 11  1  0
  5  4  1  0
  6  5  2  0
  7  6  1  0
  7  8  2  0
  8  3  1  0
  9  8  1  0
  9  1  1  0
 10  1  1  0
 11 12  1  0
 12 13  1  0
 13 14  1  0
 14 15  1  0
 15 16  1  0
 16 21  1  0
 17 16  2  0
 17 18  1  0
 18 19  2  0
 19 20  1  0
 21 20  2  0
M  END
$$$$
