lig_175
     RDKit          3D

 30 34  0  0  0  0  0  0  0  0999 V2000
   -1.3820    7.3660   17.0850 C   0  0  0  0  0  0  0  0  0  0  0  0
   -2.3270    8.2130   16.5300 C   0  0  0  0  0  0  0  0  0  0  0  0
   -3.6220    7.8460   16.3670 N   0  0  0  0  0  0  0  0  0  0  0  0
   -3.9880    6.6120   16.7310 C   0  0  0  0  0  0  0  0  0  0  0  0
   -5.3250    6.3040   16.5120 N   0  0  0  0  0  0  0  0  0  0  0  0
   -3.1320    5.7370   17.2620 N   0  0  0  0  0  0  0  0  0  0  0  0
   -1.8450    6.1140   17.4500 C   0  0  0  0  0  0  0  0  0  0  0  0
   -1.0110    5.0590   18.0570 C   0  0  0  0  0  0  0  0  0  0  0  0
    0.3360    5.2960   18.4280 C   0  0  0  0  0  0  0  0  0  0  0  0
    1.1220    4.2930   19.0110 C   0  0  0  0  0  0  0  0  0  0  0  0
    0.5390    3.0660   19.2240 C   0  0  0  0  0  0  0  0  0  0  0  0
   -0.7680    2.8200   18.8850 C   0  0  0  0  0  0  0  0  0  0  0  0
   -1.5650    3.7880   18.3090 C   0  0  0  0  0  0  0  0  0  0  0  0
   -1.1520    1.5500   19.1820 O   0  0  0  0  0  0  0  0  0  0  0  0
    0.0670    1.0240   19.7480 C   0  0  0  0  0  0  0  0  0  0  0  0
    1.1450    1.9820   19.7780 O   0  0  0  0  0  0  0  0  0  0  0  0
   -2.0430    9.5870   16.0760 C   0  0  0  0  0  0  0  0  0  0  0  0
   -1.8120    9.8490   14.7140 C   0  0  0  0  0  0  0  0  0  0  0  0
   -1.5420   11.1430   14.2640 C   0  0  0  0  0  0  0  0  0  0  0  0
   -1.4900   12.1990   15.1700 C   0  0  0  0  0  0  0  0  0  0  0  0
   -1.7000   11.9590   16.5260 C   0  0  0  0  0  0  0  0  0  0  0  0
   -1.9690   10.6640   16.9770 C   0  0  0  0  0  0  0  0  0  0  0  0
   -6.1110    5.1680   16.7400 C   0  0  0  0  0  0  0  0  0  0  0  0
   -5.8770    3.9230   16.1480 C   0  0  0  0  0  0  0  0  0  0  0  0
   -6.7040    2.8250   16.4170 C   0  0  0  0  0  0  0  0  0  0  0  0
   -7.7830    2.9550   17.2850 C   0  0  0  0  0  0  0  0  0  0  0  0
   -8.0360    4.1840   17.8850 C   0  0  0  0  0  0  0  0  0  0  0  0
   -7.2060    5.2770   17.6140 C   0  0  0  0  0  0  0  0  0  0  0  0
    1.0830    8.0770   17.4180 N   0  0  0  0  0  0  0  0  0  0  0  0
   -0.0220    7.7560   17.2660 C   0  0  0  0  0  0  0  0  0  0  0  0
  1 30  1  0
  1  7  1  0
  2  1  2  0
  3  2  1  0
  3  4  2  0
  4  6  1  0
  5  4  1  0
  5 23  1  0
  6  7  2  0
  7  8  1  0
  8 13  2  0
  8  9  1  0
  9 10  2  0
 10 11  1  0
 11 16  1  0
 12 14  1  0
 12 11  2  0
 13 12  1  0
 14 15  1  0
 15 16  1  0
 17  2  1  0
 17 22  1  0
 18 17  2  0
 19 18  1  0
 19 20  2  0
 20 21  1  0
 21 22  2  0
 23 28  1  0
 24 25  1  0
 24 23  2  0
 25 26  2  0
 26 27  1  0
 28 27  2  0
 30 29  3  0
M  END
$$$$
