lig_065
     RDKit          3D

 36 39  0  0  1  0  0  0  0  0999 V2000
    0.2730  -21.8900   12.6380 C   0  0  0  0  0  0  0  0  0  0  0  0
    0.7930  -20.8340   11.6330 C   0  0  1  0  0  0  0  0  0  0  0  0
   -0.2810  -19.8400   11.1650 C   0  0  0  0  0  0  0  0  0  0  0  0
   -0.7080  -18.8650   12.2630 C   0  0  0  0  0  0  0  0  0  0  0  0
    0.4840  -18.1080   12.8680 C   0  0  1  0  0  0  0  0  0  0  0  0
    1.5960  -19.0670   13.3090 C   0  0  0  0  0  0  0  0  0  0  0  0
    1.9930  -20.0680   12.2200 C   0  0  0  0  0  0  0  0  0  0  0  0
    1.0050  -17.1130   11.9320 N   0  0  0  0  0  0  0  0  0  0  0  0
    0.5410  -15.8070   11.9360 C   0  0  0  0  0  0  0  0  0  0  0  0
   -0.2540  -15.3830   12.7680 O   0  0  0  0  0  0  0  0  0  0  0  0
    1.1310  -14.9540   10.8040 C   0  0  0  0  0  0  0  0  0  0  0  0
    0.3080  -14.7630    9.6670 O   0  0  0  0  0  0  0  0  0  0  0  0
    0.5580  -13.6320    8.9720 C   0  0  0  0  0  0  0  0  0  0  0  0
    0.3960  -12.2630    9.2660 C   0  0  0  0  0  0  0  0  0  0  0  0
    0.8050  -11.4810    8.2600 N   0  0  0  0  0  0  0  0  0  0  0  0
    1.1860  -12.3620    7.3130 N   0  0  0  0  0  0  0  0  0  0  0  0
    1.6660  -11.8750    6.0430 C   0  0  0  0  0  0  0  0  0  0  0  0
    1.0660  -13.6650    7.6980 C   0  0  0  0  0  0  0  0  0  0  0  0
   -0.8550  -22.7980   12.1140 C   0  0  0  0  0  0  0  0  0  0  0  0
   -4.4070  -23.4950   17.3950 C   0  0  0  0  0  0  0  0  0  0  0  0
   -4.6020  -23.0850   16.1640 N   0  0  0  0  0  0  0  0  0  0  0  0
   -3.5180  -23.4350   15.3740 C   0  0  0  0  0  0  0  0  0  0  0  0
   -2.4960  -24.0860   16.0440 C   0  0  0  0  0  0  0  0  0  0  0  0
   -2.9200  -24.2850   17.6920 S   0  0  0  0  0  0  0  0  0  0  0  0
   -1.1940  -24.5900   15.5040 C   0  0  0  0  0  0  0  0  0  0  0  0
   -0.6470  -23.6940   14.3770 C   0  0  0  0  0  0  0  0  0  0  0  0
   -1.2590  -23.8700   13.0410 N   0  0  0  0  0  0  0  0  0  0  0  0
   -2.7260  -24.0480   13.0470 C   0  0  0  0  0  0  0  0  0  0  0  0
   -3.5490  -23.0860   13.9200 C   0  0  0  0  0  0  0  0  0  0  0  0
   -5.2890  -23.3120   18.3770 O   0  0  0  0  0  0  0  0  0  0  0  0
   -5.5230  -22.4620   20.5790 C   0  0  0  0  0  0  0  0  0  0  0  0
   -5.1160  -22.1120   19.1490 C   0  0  2  0  0  0  0  0  0  0  0  0
   -5.9780  -20.9610   18.6240 C   0  0  0  0  0  0  0  0  0  0  0  0
   -6.7680  -21.3170   17.5900 F   0  0  0  0  0  0  0  0  0  0  0  0
   -5.1970  -19.9410   18.1900 F   0  0  0  0  0  0  0  0  0  0  0  0
   -6.7810  -20.4600   19.5930 F   0  0  0  0  0  0  0  0  0  0  0  0
  2  7  1  0
  2  1  1  1
  3  2  1  0
  3  4  1  0
  4  5  1  0
  5  8  1  6
  5  6  1  0
  7  6  1  0
  8  9  1  0
  9 10  2  0
 11  9  1  0
 12 11  1  0
 13 14  1  0
 13 12  1  0
 15 14  2  0
 16 18  1  0
 16 15  1  0
 17 16  1  0
 18 13  2  0
 19  1  1  0
 19 27  1  0
 20 24  1  0
 20 30  1  0
 21 20  2  0
 22 23  2  0
 22 21  1  0
 23 24  1  0
 25 23  1  0
 26 25  1  0
 27 28  1  0
 27 26  1  0
 28 29  1  0
 29 22  1  0
 30 32  1  0
 32 31  1  1
 33 32  1  0
 33 36  1  0
 34 33  1  0
 35 33  1  0
M  END
$$$$
