lig_253
     RDKit          3D

 38 41  0  0  0  0  0  0  0  0999 V2000
   -3.6670    9.8060   16.0480 C   0  0  0  0  0  0  0  0  0  0  0  0
   -4.8610   10.5370   16.0080 C   0  0  0  0  0  0  0  0  0  0  0  0
   -4.8520   11.9230   15.8000 C   0  0  0  0  0  0  0  0  0  0  0  0
   -3.6440   12.5980   15.6300 C   0  0  0  0  0  0  0  0  0  0  0  0
   -2.4510   11.8750   15.6730 C   0  0  0  0  0  0  0  0  0  0  0  0
   -2.4610   10.4930   15.8820 C   0  0  0  0  0  0  0  0  0  0  0  0
   -2.6210    4.0230   17.1990 N   0  0  0  0  0  0  0  0  0  0  0  0
   -1.9750    5.2550   17.0970 C   0  0  0  0  0  0  0  0  0  0  0  0
   -0.7720    5.4310   17.2730 O   0  0  0  0  0  0  0  0  0  0  0  0
   -2.8550    6.3210   16.7530 C   0  0  0  0  0  0  0  0  0  0  0  0
   -2.5410    7.6430   16.6070 N   0  0  0  0  0  0  0  0  0  0  0  0
   -3.6720    8.3580   16.2640 C   0  0  0  0  0  0  0  0  0  0  0  0
   -4.7140    7.4390   16.2080 C   0  0  0  0  0  0  0  0  0  0  0  0
   -4.1870    6.1650   16.5120 C   0  0  0  0  0  0  0  0  0  0  0  0
   -4.7700    4.9070   16.5850 N   0  0  0  0  0  0  0  0  0  0  0  0
   -3.9820    3.7940   16.9230 C   0  0  0  0  0  0  0  0  0  0  0  0
   -4.4630    2.6570   16.9770 O   0  0  0  0  0  0  0  0  0  0  0  0
   -1.7980    2.8670   17.5380 C   0  0  0  0  0  0  0  0  0  0  0  0
   -0.2200    2.1780   19.3780 C   0  0  0  0  0  0  0  0  0  0  0  0
   -1.5890    2.7490   19.0490 C   0  0  0  0  0  0  0  0  0  0  0  0
   -6.1970    4.7100   16.3260 C   0  0  0  0  0  0  0  0  0  0  0  0
   -7.0640    4.8250   17.5830 C   0  0  0  0  0  0  0  0  0  0  0  0
   -7.9330    3.6010   17.8310 C   0  0  0  0  0  0  0  0  0  0  0  0
   -3.4920   13.9400   15.4210 O   0  0  0  0  0  0  0  0  0  0  0  0
   -2.9530   14.3410   14.1640 C   0  0  0  0  0  0  0  0  0  0  0  0
   -3.9870   15.1030   13.3310 C   0  0  0  0  0  0  0  0  0  0  0  0
   -4.4200   16.1890   13.7080 O   0  0  0  0  0  0  0  0  0  0  0  0
   -4.3460   14.4470   12.1770 N   0  0  0  0  0  0  0  0  0  0  0  0
   -5.2520   14.8400   11.1910 C   0  0  0  0  0  0  0  0  0  0  0  0
   -5.9640   16.0140   11.2280 C   0  0  0  0  0  0  0  0  0  0  0  0
   -6.8090   16.2310   10.1670 C   0  0  0  0  0  0  0  0  0  0  0  0
   -6.9600   15.3810    9.1410 N   0  0  0  0  0  0  0  0  0  0  0  0
   -6.2210   14.2720    9.2030 C   0  0  0  0  0  0  0  0  0  0  0  0
   -5.3660   13.9540   10.1870 N   0  0  0  0  0  0  0  0  0  0  0  0
   -7.5300   17.4100   10.1950 O   0  0  0  0  0  0  0  0  0  0  0  0
   -8.4070   17.5060   11.3150 C   0  0  0  0  0  0  0  0  0  0  0  0
   -6.3930   13.4120    8.1390 O   0  0  0  0  0  0  0  0  0  0  0  0
   -6.7680   12.1010    8.5320 C   0  0  0  0  0  0  0  0  0  0  0  0
  1 12  1  0
  2  1  1  0
  3  2  2  0
  4  5  2  0
  4  3  1  0
  5  6  1  0
  6  1  2  0
  7 18  1  0
  8  7  1  0
  8  9  2  0
 10  8  1  0
 11 10  1  0
 12 11  1  0
 13 12  2  0
 13 14  1  0
 14 15  1  0
 14 10  2  0
 15 16  1  0
 16 17  2  0
 16  7  1  0
 18 20  1  0
 20 19  1  0
 21 15  1  0
 21 22  1  0
 22 23  1  0
 24  4  1  0
 25 24  1  0
 26 27  2  0
 26 25  1  0
 28 26  1  0
 29 30  2  0
 29 28  1  0
 31 35  1  0
 31 30  1  0
 32 33  1  0
 32 31  2  0
 33 34  2  0
 34 29  1  0
 35 36  1  0
 37 38  1  0
 37 33  1  0
M  END
$$$$
