lig_008
     RDKit          3D

 25 28  0  0  1  0  0  0  0  0999 V2000
  -16.0580  -16.0750   35.8240 C   0  0  0  0  0  0  0  0  0  0  0  0
  -14.9960  -15.1870   36.4640 C   0  0  2  0  0  0  0  0  0  0  0  0
  -14.0490  -14.8210   35.4510 O   0  0  0  0  0  0  0  0  0  0  0  0
  -12.9080  -15.5610   35.5780 C   0  0  0  0  0  0  0  0  0  0  0  0
  -11.9530  -15.4790   34.8230 O   0  0  0  0  0  0  0  0  0  0  0  0
  -13.0400  -16.5150   36.7360 C   0  0  1  0  0  0  0  0  0  0  0  0
  -11.7490  -16.7240   37.5260 C   0  0  0  0  0  0  0  0  0  0  0  0
  -12.0740  -16.9750   38.9960 C   0  0  1  0  0  0  0  0  0  0  0  0
  -10.8510  -17.4100   39.8170 C   0  0  0  0  0  0  0  0  0  0  0  0
  -11.0530  -17.2100   41.3270 C   0  0  0  0  0  0  0  0  0  0  0  0
  -12.5270  -17.2120   41.7290 C   0  0  0  0  0  0  0  0  0  0  0  0
  -13.3500  -16.1490   40.9860 C   0  0  0  0  0  0  0  0  0  0  0  0
  -12.7190  -15.7340   39.6430 C   0  0  2  0  0  0  0  0  0  0  0  0
  -13.7230  -14.9950   38.7110 C   0  0  2  0  0  0  0  0  0  0  0  0
  -14.1870  -15.9050   37.5410 C   0  0  1  0  0  0  0  0  0  0  0  0
  -13.1040  -13.6890   38.2560 C   0  0  0  0  0  0  0  0  0  0  0  0
  -11.8710  -13.2710   38.5990 C   0  0  0  0  0  0  0  0  0  0  0  0
  -11.1970  -11.9760   38.1790 C   0  0  1  0  0  0  0  0  0  0  0  0
  -12.2290  -10.8390   38.2740 C   0  0  0  0  0  0  0  0  0  0  0  0
  -11.6480   -9.5180   37.7750 C   0  0  0  0  0  0  0  0  0  0  0  0
  -10.1790   -9.3420   38.1600 C   0  0  0  0  0  0  0  0  0  0  0  0
   -9.7730  -10.2810   39.3050 C   0  0  2  0  0  0  0  0  0  0  0  0
   -8.3730   -9.9230   39.8180 C   0  0  0  0  0  0  0  0  0  0  0  0
   -9.9620  -11.7000   38.9460 N   0  0  0  0  0  0  0  0  0  0  0  0
   -8.8060  -12.3300   38.3020 C   0  0  0  0  0  0  0  0  0  0  0  0
  2  1  1  6
 15  2  1  6
  3  4  1  0
  3  2  1  0
  4  6  1  0
  5  4  2  0
  6  7  1  1
  6 15  1  0
  8  7  1  6
  8 13  1  0
  8  9  1  0
  9 10  1  0
 10 11  1  0
 12 11  1  0
 13 12  1  1
 14 16  1  6
 14 13  1  0
 15 14  1  0
 16 17  2  0
 18 19  1  0
 18 17  1  1
 18 24  1  0
 20 21  1  0
 20 19  1  0
 21 22  1  0
 22 23  1  6
 24 22  1  0
 25 24  1  0
M  END
$$$$
