lig_429
     RDKit          3D

 22 24  0  0  0  0  0  0  0  0999 V2000
    1.5720  -18.4220   13.4020 N   0  0  0  0  0  0  0  0  0  0  0  0
    0.2660  -17.7680   13.6790 C   0  0  0  0  0  0  0  0  0  0  0  0
   -0.2880  -16.8510   12.5570 C   0  0  0  0  0  0  0  0  0  0  0  0
    0.7850  -16.0980   11.8830 N   0  0  0  0  0  0  0  0  0  0  0  0
    2.0220  -15.9700   12.6660 C   0  0  0  0  0  0  0  0  0  0  0  0
    2.5690  -17.3730   13.0420 C   0  0  0  0  0  0  0  0  0  0  0  0
    0.3580  -14.9040   11.2790 C   0  0  0  0  0  0  0  0  0  0  0  0
   -0.5810  -14.0930   11.9210 C   0  0  0  0  0  0  0  0  0  0  0  0
   -1.0160  -12.9120   11.3190 C   0  0  0  0  0  0  0  0  0  0  0  0
   -0.5090  -12.5610   10.0790 C   0  0  0  0  0  0  0  0  0  0  0  0
    0.4070  -13.4150    9.4950 C   0  0  0  0  0  0  0  0  0  0  0  0
    0.8390  -14.5640   10.0630 N   0  0  0  0  0  0  0  0  0  0  0  0
    1.4480  -19.3960   12.2820 C   0  0  0  0  0  0  0  0  0  0  0  0
    1.5640  -21.5100   13.4450 O   0  0  0  0  0  0  0  0  0  0  0  0
    0.8870  -20.7400   12.7730 C   0  0  0  0  0  0  0  0  0  0  0  0
   -0.4360  -20.9170   12.4060 N   0  0  0  0  0  0  0  0  0  0  0  0
   -1.2730  -22.0040   12.7070 C   0  0  0  0  0  0  0  0  0  0  0  0
   -2.1230  -21.8840   13.8090 C   0  0  0  0  0  0  0  0  0  0  0  0
   -2.9720  -22.9350   14.1510 C   0  0  0  0  0  0  0  0  0  0  0  0
   -2.9440  -24.0810   13.3750 C   0  0  0  0  0  0  0  0  0  0  0  0
   -2.1370  -24.2380   12.3050 N   0  0  0  0  0  0  0  0  0  0  0  0
   -1.3190  -23.1990   11.9950 C   0  0  0  0  0  0  0  0  0  0  0  0
  1  2  1  0
  3  2  1  0
  4  3  1  0
  4  5  1  0
  5  6  1  0
  6  1  1  0
  7  4  1  0
  7  8  2  0
  9  8  1  0
 10  9  2  0
 11 12  2  0
 11 10  1  0
 12  7  1  0
 13 15  1  0
 13  1  1  0
 15 14  2  0
 16 17  1  0
 16 15  1  0
 17 18  2  0
 18 19  1  0
 20 19  2  0
 21 20  1  0
 22 21  2  0
 22 17  1  0
M  END
$$$$
