lig_027
     RDKit          3D

 26 28  0  0  0  0  0  0  0  0999 V2000
   10.9160    7.7720   -9.6370 N   0  0  0  0  0  0  0  0  0  0  0  0
   10.7000    9.1340   -9.1230 C   0  0  0  0  0  0  0  0  0  0  0  0
   11.0970    9.3210   -7.6610 C   0  0  0  0  0  0  0  0  0  0  0  0
   10.3080    8.3690   -6.7410 C   0  0  0  0  0  0  0  0  0  0  0  0
    9.9940    7.0320   -7.4490 C   0  0  0  0  0  0  0  0  0  0  0  0
   10.9830    6.7500   -8.5790 C   0  0  0  0  0  0  0  0  0  0  0  0
   11.0630    8.2390   -5.4110 C   0  0  0  0  0  0  0  0  0  0  0  0
   11.1650    6.9810   -4.7800 C   0  0  0  0  0  0  0  0  0  0  0  0
   11.8190    6.8320   -3.5550 C   0  0  0  0  0  0  0  0  0  0  0  0
   12.3720    7.9440   -2.9390 C   0  0  0  0  0  0  0  0  0  0  0  0
   12.9990    7.8070   -1.7630 F   0  0  0  0  0  0  0  0  0  0  0  0
   12.2820    9.1980   -3.5250 C   0  0  0  0  0  0  0  0  0  0  0  0
   11.6270    9.3470   -4.7510 C   0  0  0  0  0  0  0  0  0  0  0  0
    9.0380    8.9790   -6.4390 O   0  0  0  0  0  0  0  0  0  0  0  0
   12.0850    7.7140  -10.5320 C   0  0  0  0  0  0  0  0  0  0  0  0
   11.7610    7.3160  -11.9790 C   0  0  0  0  0  0  0  0  0  0  0  0
   10.2650    7.0890  -12.2090 C   0  0  0  0  0  0  0  0  0  0  0  0
   10.8750    5.0260  -13.2980 O   0  0  0  0  0  0  0  0  0  0  0  0
    9.9850    5.7290  -12.8230 C   0  0  0  0  0  0  0  0  0  0  0  0
    8.5740    5.2310  -12.8500 C   0  0  0  0  0  0  0  0  0  0  0  0
    8.2320    3.9700  -13.3600 C   0  0  0  0  0  0  0  0  0  0  0  0
    6.8980    3.5530  -13.3610 C   0  0  0  0  0  0  0  0  0  0  0  0
    5.9110    4.3920  -12.8550 C   0  0  0  0  0  0  0  0  0  0  0  0
    4.6350    3.9860  -12.8590 F   0  0  0  0  0  0  0  0  0  0  0  0
    6.2310    5.6440  -12.3460 C   0  0  0  0  0  0  0  0  0  0  0  0
    7.5620    6.0650  -12.3430 C   0  0  0  0  0  0  0  0  0  0  0  0
  1  2  1  0
  1  6  1  0
  2  3  1  0
  3  4  1  0
  4 14  1  0
  4  7  1  0
  5  4  1  0
  6  5  1  0
  7  8  1  0
  7 13  2  0
  8  9  2  0
  9 10  1  0
 10 11  1  0
 12 10  2  0
 13 12  1  0
 15  1  1  0
 16 15  1  0
 17 16  1  0
 18 19  2  0
 19 17  1  0
 20 19  1  0
 20 26  2  0
 21 20  1  0
 22 21  2  0
 22 23  1  0
 23 25  2  0
 24 23  1  0
 25 26  1  0
M  END
$$$$
