mol_ec4568b298d6
     RDKit          3D

 28 31  0  0  0  0  0  0  0  0999 V2000
   -5.7850   -0.0975   -1.0887 C   0  0  0  0  0  0  0  0  0  0  0  0
   -4.5561    0.1446   -0.2678 C   0  0  0  0  0  0  0  0  0  0  0  0
   -3.7963    1.2459   -0.3950 C   0  0  0  0  0  0  0  0  0  0  0  0
   -2.5837    1.5412    0.4509 C   0  0  2  0  0  0  0  0  0  0  0  0
   -2.9892    1.9694    1.8720 C   0  0  0  0  0  0  0  0  0  0  0  0
   -1.7142    2.6452   -0.2063 C   0  0  0  0  0  0  0  0  0  0  0  0
   -0.2627    2.3067    0.1440 C   0  0  0  0  0  0  0  0  0  0  0  0
   -0.3316    0.8220    0.3207 C   0  0  0  0  0  0  0  0  0  0  0  0
   -1.5951    0.4040    0.4711 C   0  0  0  0  0  0  0  0  0  0  0  0
   -1.8998   -1.0163    0.5862 C   0  0  0  0  0  0  0  0  0  0  0  0
   -3.1950   -1.5441    0.6895 C   0  0  0  0  0  0  0  0  0  0  0  0
   -3.3927   -2.9230    0.8454 C   0  0  0  0  0  0  0  0  0  0  0  0
   -2.3095   -3.7965    0.8677 C   0  0  0  0  0  0  0  0  0  0  0  0
   -1.0190   -3.2908    0.7467 C   0  0  0  0  0  0  0  0  0  0  0  0
   -0.8130   -1.9086    0.6081 C   0  0  0  0  0  0  0  0  0  0  0  0
    0.5883   -1.3982    0.4994 C   0  0  0  0  0  0  0  0  0  0  0  0
    1.5089   -2.2039    0.6303 O   0  0  0  0  0  0  0  0  0  0  0  0
    0.7642   -0.0248    0.2759 N   0  0  0  0  0  0  0  0  0  0  0  0
    2.0511    0.5140    0.2060 C   0  0  0  0  0  0  0  0  0  0  0  0
    2.3923    1.5191    0.8353 O   0  0  0  0  0  0  0  0  0  0  0  0
    3.0109   -0.1563   -0.7790 C   0  0  0  0  0  0  0  0  0  0  0  0
    4.4880   -0.1341   -0.3278 C   0  0  0  0  0  0  0  0  0  0  0  0
    5.3378   -0.8911   -1.3645 C   0  0  0  0  0  0  0  0  0  0  0  0
    4.6549   -0.8240    1.0356 C   0  0  0  0  0  0  0  0  0  0  0  0
    4.9865    1.3063   -0.3325 C   0  0  0  0  0  0  0  0  0  0  0  0
    4.7808    2.1260   -1.2163 O   0  0  0  0  0  0  0  0  0  0  0  0
    5.7638    1.6331    0.7150 O   0  0  0  0  0  0  0  0  0  0  0  0
   -4.3513   -0.7988    0.7238 O   0  0  0  0  0  0  0  0  0  0  0  0
  1  2  1  0
  2  3  2  0
  3  4  1  0
  4  5  1  1
  4  6  1  0
  6  7  1  0
  7  8  1  0
  8  9  2  0
  9 10  1  0
 10 11  2  0
 11 12  1  0
 12 13  2  0
 13 14  1  0
 14 15  2  0
 15 16  1  0
 16 17  2  0
 16 18  1  0
 18 19  1  0
 19 20  2  0
 19 21  1  0
 21 22  1  0
 22 23  1  0
 22 24  1  0
 22 25  1  0
 25 26  2  0
 25 27  1  0
 11 28  1  0
 28  2  1  0
  9  4  1  0
 15 10  1  0
 18  8  1  0
M  END
