mol_7234d577bf28
     RDKit          3D

 25 29  0  0  0  0  0  0  0  0999 V2000
    2.5162   -0.4550    3.1959 C   0  0  0  0  0  0  0  0  0  0  0  0
    2.7290    0.6322    2.1450 C   0  0  1  0  0  0  0  0  0  0  0  0
    4.1428    0.8935    2.0541 O   0  0  0  0  0  0  0  0  0  0  0  0
    4.9458    0.2555    1.1732 C   0  0  0  0  0  0  0  0  0  0  0  0
    6.1576    0.1944    1.3345 O   0  0  0  0  0  0  0  0  0  0  0  0
    4.3022   -0.2929   -0.0428 C   0  0  0  0  0  0  0  0  0  0  0  0
    5.1200   -0.8207   -1.0539 C   0  0  0  0  0  0  0  0  0  0  0  0
    4.5609   -1.2782   -2.2445 C   0  0  0  0  0  0  0  0  0  0  0  0
    3.1829   -1.2022   -2.4364 C   0  0  0  0  0  0  0  0  0  0  0  0
    2.3485   -0.6787   -1.4287 C   0  0  0  0  0  0  0  0  0  0  0  0
    2.9162   -0.2305   -0.2079 C   0  0  0  0  0  0  0  0  0  0  0  0
    2.0942    0.2664    0.8280 C   0  0  0  0  0  0  0  0  0  0  0  0
    0.6982    0.3634    0.6656 C   0  0  0  0  0  0  0  0  0  0  0  0
    0.1582   -0.0554   -0.5303 C   0  0  0  0  0  0  0  0  0  0  0  0
    0.9655   -0.5678   -1.5471 C   0  0  0  0  0  0  0  0  0  0  0  0
    0.1378   -0.9133   -2.6138 N   0  0  0  0  0  0  0  0  0  0  0  0
   -1.1921   -0.6240   -2.2834 C   0  0  0  0  0  0  0  0  0  0  0  0
   -2.1508   -0.8157   -3.0115 O   0  0  0  0  0  0  0  0  0  0  0  0
   -1.1747   -0.0867   -0.9777 N   0  0  0  0  0  0  0  0  0  0  0  0
   -2.3372    0.3552   -0.2260 C   0  0  0  0  0  0  0  0  0  0  0  0
   -3.3095   -0.8023    0.0494 C   0  0  0  0  0  0  0  0  0  0  0  0
   -4.5270   -0.3331    0.8431 C   0  0  0  0  0  0  0  0  0  0  0  0
   -5.2313    0.8334    0.1561 C   0  0  0  0  0  0  0  0  0  0  0  0
   -4.2713    1.9863   -0.1231 C   0  0  0  0  0  0  0  0  0  0  0  0
   -3.0533    1.5243   -0.9201 C   0  0  0  0  0  0  0  0  0  0  0  0
  2  1  1  1
  2  3  1  0
  3  4  1  0
  4  5  2  0
  4  6  1  0
  6  7  1  0
  7  8  2  0
  8  9  1  0
  9 10  2  0
 10 11  1  0
 11 12  1  0
 12 13  2  0
 13 14  1  0
 14 15  2  0
 15 16  1  0
 16 17  1  0
 17 18  2  0
 17 19  1  0
 19 20  1  0
 20 21  1  0
 21 22  1  0
 22 23  1  0
 23 24  1  0
 24 25  1  0
 12  2  1  0
 19 14  1  0
 25 20  1  0
 11  6  2  0
 15 10  1  0
M  END
