mol_d46ea1e507d7
     RDKit          3D

 27 30  0  0  0  0  0  0  0  0999 V2000
    6.0614   -1.8496    0.4219 O   0  0  0  0  0  0  0  0  0  0  0  0
    5.6348   -0.7004    0.2737 C   0  0  0  0  0  0  0  0  0  0  0  0
    6.3392    0.4248    1.0059 C   0  0  0  0  0  0  0  0  0  0  0  0
    6.4775    1.7077    0.2226 C   0  0  0  0  0  0  0  0  0  0  0  0
    5.3527    2.5733    0.3629 O   0  0  0  0  0  0  0  0  0  0  0  0
    4.0704    1.9515    0.2380 C   0  0  0  0  0  0  0  0  0  0  0  0
    4.0103    0.8966   -0.8787 C   0  0  2  0  0  0  0  0  0  0  0  0
    2.6092    0.8286   -1.5233 C   0  0  0  0  0  0  0  0  0  0  0  0
    1.6056   -0.0986   -0.8133 C   0  0  2  0  0  0  0  0  0  0  0  0
    0.9166    0.6036    0.3763 C   0  0  0  0  0  0  0  0  0  0  0  0
   -0.3292   -0.0528    0.7767 N   0  0  0  0  0  0  0  0  0  0  0  0
   -0.3334   -0.8993    1.8695 C   0  0  0  0  0  0  0  0  0  0  0  0
   -1.4499   -1.5181    2.2610 C   0  0  0  0  0  0  0  0  0  0  0  0
   -1.4578   -2.3601    3.3451 O   0  0  0  0  0  0  0  0  0  0  0  0
   -2.6839   -1.3131    1.5483 C   0  0  0  0  0  0  0  0  0  0  0  0
   -2.7508   -0.4911    0.4835 C   0  0  0  0  0  0  0  0  0  0  0  0
   -3.9935   -0.2115   -0.3475 C   0  0  0  0  0  0  0  0  0  0  0  0
   -5.0666   -1.3190   -0.2988 C   0  0  0  0  0  0  0  0  0  0  0  0
   -6.2640   -0.9764   -1.1844 C   0  0  0  0  0  0  0  0  0  0  0  0
   -6.8725    0.3685   -0.8008 C   0  0  0  0  0  0  0  0  0  0  0  0
   -5.8295    1.4810   -0.8143 C   0  0  0  0  0  0  0  0  0  0  0  0
   -4.6182    1.1386    0.0524 C   0  0  0  0  0  0  0  0  0  0  0  0
   -1.4851    0.2057    0.0341 C   0  0  0  0  0  0  0  0  0  0  0  0
   -1.5016    0.9533   -0.9426 O   0  0  0  0  0  0  0  0  0  0  0  0
    2.2510   -1.4367   -0.4012 C   0  0  0  0  0  0  0  0  0  0  0  0
    3.6821   -1.5784   -0.9064 C   0  0  0  0  0  0  0  0  0  0  0  0
    4.4720   -0.4396   -0.4378 N   0  0  0  0  0  0  0  0  0  0  0  0
  1  2  2  0
  2  3  1  0
  3  4  1  0
  4  5  1  0
  5  6  1  0
  7  6  1  1
  7  8  1  0
  8  9  1  0
  9 10  1  1
 10 11  1  0
 11 12  1  0
 12 13  2  0
 13 14  1  0
 13 15  1  0
 15 16  2  0
 16 17  1  0
 17 18  1  0
 18 19  1  0
 19 20  1  0
 20 21  1  0
 21 22  1  0
 16 23  1  0
 23 24  2  0
  9 25  1  0
 25 26  1  0
 26 27  1  0
 27  2  1  0
 27  7  1  0
 23 11  1  0
 22 17  1  0
M  END
