mol_54bf7e3e3d89
     RDKit          3D

 22 23  0  0  0  0  0  0  0  0999 V2000
   -0.6632    2.8945    1.5413 C   0  0  0  0  0  0  0  0  0  0  0  0
   -0.8529    1.9192    0.5170 O   0  0  0  0  0  0  0  0  0  0  0  0
   -1.0106    0.6557    1.0006 C   0  0  0  0  0  0  0  0  0  0  0  0
   -1.0910    0.3421    2.1764 O   0  0  0  0  0  0  0  0  0  0  0  0
   -1.2184   -0.2611   -0.1528 C   0  0  0  0  0  0  0  0  0  0  0  0
   -0.3326   -0.2807   -1.2550 C   0  0  0  0  0  0  0  0  0  0  0  0
    0.9382    0.3420   -1.3473 N   0  0  0  0  0  0  0  0  0  0  0  0
    1.7979    0.6539   -0.3099 C   0  0  0  0  0  0  0  0  0  0  0  0
    1.6725    0.2938    0.8515 O   0  0  0  0  0  0  0  0  0  0  0  0
    2.9860    1.4695   -0.7928 C   0  0  0  0  0  0  0  0  0  0  0  0
    3.9313    1.9259    0.3164 C   0  0  0  0  0  0  0  0  0  0  0  0
    4.7223    0.8182    1.0255 C   0  0  1  0  0  0  0  0  0  0  0  0
    5.5312   -0.0648    0.0846 C   0  0  0  0  0  0  0  0  0  0  0  0
    5.6282    1.4380    1.9434 O   0  0  0  0  0  0  0  0  0  0  0  0
   -0.7201   -0.9680   -2.4147 C   0  0  0  0  0  0  0  0  0  0  0  0
   -1.9243   -1.6653   -2.4736 C   0  0  0  0  0  0  0  0  0  0  0  0
   -2.7909   -1.6872   -1.3769 C   0  0  0  0  0  0  0  0  0  0  0  0
   -2.4366   -1.0043   -0.1927 C   0  0  0  0  0  0  0  0  0  0  0  0
   -3.3972   -0.9959    0.9843 C   0  0  0  0  0  0  0  0  0  0  0  0
   -4.5258   -2.0239    0.9007 C   0  0  0  0  0  0  0  0  0  0  0  0
   -5.1322   -2.0486   -0.4906 C   0  0  0  0  0  0  0  0  0  0  0  0
   -4.0742   -2.4744   -1.5002 C   0  0  0  0  0  0  0  0  0  0  0  0
  1  2  1  0
  2  3  1  0
  3  4  2  0
  3  5  1  0
  5  6  2  0
  6  7  1  0
  7  8  1  0
  8  9  2  0
  8 10  1  0
 10 11  1  0
 11 12  1  0
 12 13  1  6
 12 14  1  0
  6 15  1  0
 15 16  2  0
 16 17  1  0
 17 18  2  0
 18 19  1  0
 19 20  1  0
 20 21  1  0
 21 22  1  0
 18  5  1  0
 22 17  1  0
M  END
