mol_8e71e87d477f
     RDKit          3D

 26 28  0  0  0  0  0  0  0  0999 V2000
   -1.5537   -3.5215    0.3294 C   0  0  0  0  0  0  0  0  0  0  0  0
   -1.5341   -2.0133    0.2992 C   0  0  0  0  0  0  0  0  0  0  0  0
   -2.7075   -1.2375    0.3852 C   0  0  0  0  0  0  0  0  0  0  0  0
   -4.1372   -1.7737    0.4875 C   0  0  0  0  0  0  0  0  0  0  0  0
   -4.4561   -2.3485    1.8696 C   0  0  0  0  0  0  0  0  0  0  0  0
   -4.5438   -2.7087   -0.6551 C   0  0  0  0  0  0  0  0  0  0  0  0
   -2.5829    0.1721    0.3759 C   0  0  0  0  0  0  0  0  0  0  0  0
   -1.3601    0.8486    0.2594 C   0  0  0  0  0  0  0  0  0  0  0  0
   -1.2886    2.3682    0.2453 C   0  0  0  0  0  0  0  0  0  0  0  0
   -2.5237    3.3029    0.2151 C   0  0  0  0  0  0  0  0  0  0  0  0
   -3.4011    3.1379   -1.0257 C   0  0  0  0  0  0  0  0  0  0  0  0
   -3.3343    3.3104    1.5117 C   0  0  0  0  0  0  0  0  0  0  0  0
   -0.1917    0.0555    0.1490 C   0  0  0  0  0  0  0  0  0  0  0  0
    1.1851    0.6393    0.0463 C   0  0  0  0  0  0  0  0  0  0  0  0
    1.3648    1.8387    0.2477 O   0  0  0  0  0  0  0  0  0  0  0  0
    2.2446   -0.2222   -0.2511 N   0  0  0  0  0  0  0  0  0  0  0  0
    3.5779    0.3743   -0.4602 C   0  0  0  0  0  0  0  0  0  0  0  0
    4.5221    0.1351    0.7361 C   0  0  0  0  0  0  0  0  0  0  0  0
    6.0036    0.1710    0.3517 C   0  0  0  0  0  0  0  0  0  0  0  0
    6.2716    1.1459   -0.7873 C   0  0  0  0  0  0  0  0  0  0  0  0
    5.5059    0.7733   -2.0591 C   0  0  0  0  0  0  0  0  0  0  0  0
    4.2272   -0.0277   -1.7942 C   0  0  0  0  0  0  0  0  0  0  0  0
    2.1168   -1.5933   -0.2365 C   0  0  0  0  0  0  0  0  0  0  0  0
    3.0435   -2.3904   -0.3763 O   0  0  0  0  0  0  0  0  0  0  0  0
    0.8730   -2.0975   -0.0365 N   0  0  0  0  0  0  0  0  0  0  0  0
   -0.2905   -1.3448    0.1427 C   0  0  0  0  0  0  0  0  0  0  0  0
  1  2  1  0
  2  3  1  0
  3  4  1  0
  4  5  1  0
  4  6  1  0
  3  7  2  0
  7  8  1  0
  8  9  1  0
  9 10  1  0
 10 11  1  0
 10 12  1  0
  8 13  2  0
 13 14  1  0
 14 15  2  0
 14 16  1  0
 16 17  1  0
 17 18  1  0
 18 19  1  0
 19 20  1  0
 20 21  1  0
 21 22  1  0
 16 23  1  0
 23 24  2  0
 23 25  1  0
 25 26  1  0
 26  2  2  0
 26 13  1  0
 22 17  1  0
M  END
