mol_e5a0cd452f87
     RDKit          3D

 25 27  0  0  0  0  0  0  0  0999 V2000
    0.3781    0.2000    0.9261 O   0  0  0  0  0  0  0  0  0  0  0  0
    0.8352   -0.3730   -0.0564 C   0  0  0  0  0  0  0  0  0  0  0  0
    2.2458   -0.1106   -0.5480 C   0  0  0  0  0  0  0  0  0  0  0  0
    3.1031    0.5236    0.5403 C   0  0  0  0  0  0  0  0  0  0  0  0
    4.4478    0.8365    0.0593 N   0  0  0  0  0  0  0  0  0  0  0  0
    4.6890    2.1029   -0.6121 C   0  0  0  0  0  0  0  0  0  0  0  0
    6.0169    2.7165   -0.1811 C   0  0  0  0  0  0  0  0  0  0  0  0
    7.1262    1.6787    0.0060 C   0  0  0  0  0  0  0  0  0  0  0  0
    6.7523    0.3046   -0.5338 C   0  0  0  0  0  0  0  0  0  0  0  0
    5.4254   -0.1496    0.0393 C   0  0  0  0  0  0  0  0  0  0  0  0
    5.2334   -1.3073    0.3992 O   0  0  0  0  0  0  0  0  0  0  0  0
    0.1676   -1.2703   -0.8747 N   0  0  0  0  0  0  0  0  0  0  0  0
   -1.1614   -1.7269   -0.7511 C   0  0  0  0  0  0  0  0  0  0  0  0
   -1.6126   -2.6418   -1.7104 C   0  0  0  0  0  0  0  0  0  0  0  0
   -2.9172   -3.1370   -1.6656 C   0  0  0  0  0  0  0  0  0  0  0  0
   -3.7853   -2.7237   -0.6580 C   0  0  0  0  0  0  0  0  0  0  0  0
   -3.3534   -1.8154    0.3161 C   0  0  0  0  0  0  0  0  0  0  0  0
   -4.2938   -1.3536    1.4063 C   0  0  0  0  0  0  0  0  0  0  0  0
   -5.2785   -0.3009    0.9521 C   0  0  0  0  0  0  0  0  0  0  0  0
   -4.8660    1.0275    0.7721 C   0  0  0  0  0  0  0  0  0  0  0  0
   -5.7724    1.9997    0.3462 C   0  0  0  0  0  0  0  0  0  0  0  0
   -7.0987    1.6548    0.0939 C   0  0  0  0  0  0  0  0  0  0  0  0
   -7.5197    0.3374    0.2656 C   0  0  0  0  0  0  0  0  0  0  0  0
   -6.6146   -0.6367    0.6912 C   0  0  0  0  0  0  0  0  0  0  0  0
   -2.0380   -1.3206    0.2573 C   0  0  0  0  0  0  0  0  0  0  0  0
  1  2  2  0
  2  3  1  0
  3  4  1  0
  4  5  1  0
  5  6  1  0
  6  7  1  0
  7  8  1  0
  8  9  1  0
  9 10  1  0
 10 11  2  0
  2 12  1  0
 12 13  1  0
 13 14  2  0
 14 15  1  0
 15 16  2  0
 16 17  1  0
 17 18  1  0
 18 19  1  0
 19 20  2  0
 20 21  1  0
 21 22  2  0
 22 23  1  0
 23 24  2  0
 17 25  2  0
 10  5  1  0
 25 13  1  0
 24 19  1  0
M  END
