mol_7a0b62726006
     RDKit          3D

 25 27  0  0  0  0  0  0  0  0999 V2000
   -5.9429    0.1955   -1.1625 C   0  0  0  0  0  0  0  0  0  0  0  0
   -4.7667   -0.1128   -0.2277 C   0  0  2  0  0  0  0  0  0  0  0  0
   -5.2730   -0.7039    1.1017 C   0  0  0  0  0  0  0  0  0  0  0  0
   -4.7974   -2.1386    1.3696 C   0  0  0  0  0  0  0  0  0  0  0  0
   -3.2936   -2.4131    1.3020 C   0  0  0  0  0  0  0  0  0  0  0  0
   -2.5575   -1.8893    2.3987 O   0  0  0  0  0  0  0  0  0  0  0  0
   -2.1552   -0.5230    2.2940 C   0  0  0  0  0  0  0  0  0  0  0  0
   -1.2767   -0.2154    1.1265 C   0  0  0  0  0  0  0  0  0  0  0  0
    0.0516   -0.5848    0.9839 C   0  0  0  0  0  0  0  0  0  0  0  0
    0.5293   -0.0311   -0.1739 N   0  0  0  0  0  0  0  0  0  0  0  0
    1.8848   -0.1704   -0.6739 C   0  0  0  0  0  0  0  0  0  0  0  0
    2.7397    1.0537   -0.3520 C   0  0  0  0  0  0  0  0  0  0  0  0
    4.0776    0.9706   -0.9129 N   0  0  0  0  0  0  0  0  0  0  0  0
    5.0392    0.1441   -0.3730 C   0  0  0  0  0  0  0  0  0  0  0  0
    4.8150   -0.5946    0.5800 O   0  0  0  0  0  0  0  0  0  0  0  0
    6.3909    0.2320   -1.0747 C   0  0  0  0  0  0  0  0  0  0  0  0
    7.0637    1.5651   -0.7552 C   0  0  0  0  0  0  0  0  0  0  0  0
    7.2934   -0.9320   -0.6734 C   0  0  0  0  0  0  0  0  0  0  0  0
   -0.4593    0.6949   -0.7848 C   0  0  0  0  0  0  0  0  0  0  0  0
   -0.3100    1.4137   -1.9105 N   0  0  0  0  0  0  0  0  0  0  0  0
   -1.4483    2.0396   -2.2476 C   0  0  0  0  0  0  0  0  0  0  0  0
   -2.6421    1.9877   -1.6284 N   0  0  0  0  0  0  0  0  0  0  0  0
   -2.7641    1.2114   -0.5302 C   0  0  0  0  0  0  0  0  0  0  0  0
   -1.6194    0.5613   -0.0318 C   0  0  0  0  0  0  0  0  0  0  0  0
   -4.0345    1.1305    0.0304 N   0  0  0  0  0  0  0  0  0  0  0  0
  2  1  1  6
  2  3  1  0
  3  4  1  0
  4  5  1  0
  5  6  1  0
  6  7  1  0
  7  8  1  0
  8  9  2  0
  9 10  1  0
 10 11  1  0
 11 12  1  0
 12 13  1  0
 13 14  1  0
 14 15  2  0
 14 16  1  0
 16 17  1  0
 16 18  1  0
 10 19  1  0
 19 20  2  0
 20 21  1  0
 21 22  2  0
 22 23  1  0
 23 24  2  0
 23 25  1  0
 25  2  1  0
 24  8  1  0
 24 19  1  0
M  END
