mol_d853cf7dd611
     RDKit          3D

 29 32  0  0  0  0  0  0  0  0999 V2000
    1.1894   -2.5326   -0.0946 C   0  0  0  0  0  0  0  0  0  0  0  0
    1.4360   -1.0615   -0.1409 C   0  0  0  0  0  0  0  0  0  0  0  0
    2.4805   -0.3819   -0.8412 C   0  0  0  0  0  0  0  0  0  0  0  0
    3.5653   -0.9702   -1.6908 C   0  0  0  0  0  0  0  0  0  0  0  0
    4.8003   -1.0229   -0.9354 N   0  0  0  0  0  0  0  0  0  0  0  0
    4.9814   -1.8653    0.2188 C   0  0  0  0  0  0  0  0  0  0  0  0
    6.4811   -1.8279    0.4407 C   0  0  0  0  0  0  0  0  0  0  0  0
    6.8874   -0.4478   -0.0622 C   0  0  0  0  0  0  0  0  0  0  0  0
    5.8689   -0.1669   -1.1398 C   0  0  0  0  0  0  0  0  0  0  0  0
    5.9729    0.6889   -2.0023 O   0  0  0  0  0  0  0  0  0  0  0  0
    2.3105    0.9631   -0.5792 C   0  0  0  0  0  0  0  0  0  0  0  0
    1.1835    1.1640    0.1942 N   0  0  0  0  0  0  0  0  0  0  0  0
    0.6840   -0.0945    0.5209 C   0  0  0  0  0  0  0  0  0  0  0  0
   -0.4678   -0.2813    1.4578 C   0  0  0  0  0  0  0  0  0  0  0  0
   -1.6597    0.2474    0.8265 N   0  0  0  0  0  0  0  0  0  0  0  0
   -2.5632   -0.6482    0.2736 C   0  0  0  0  0  0  0  0  0  0  0  0
   -2.4724   -1.8640    0.3804 O   0  0  0  0  0  0  0  0  0  0  0  0
   -3.5589   -0.0128   -0.3975 O   0  0  0  0  0  0  0  0  0  0  0  0
   -4.6119   -0.7565   -1.0629 C   0  0  0  0  0  0  0  0  0  0  0  0
   -5.5093    0.3224   -1.6884 C   0  0  0  0  0  0  0  0  0  0  0  0
   -4.0498   -1.6362   -2.1847 C   0  0  0  0  0  0  0  0  0  0  0  0
   -5.4438   -1.5628   -0.0600 C   0  0  0  0  0  0  0  0  0  0  0  0
   -1.7993    1.6873    0.6286 C   0  0  1  0  0  0  0  0  0  0  0  0
   -2.9824    2.2941    1.4129 C   0  0  0  0  0  0  0  0  0  0  0  0
   -2.3913    3.0963    2.5753 C   0  0  0  0  0  0  0  0  0  0  0  0
   -0.9637    3.2630    2.1894 C   0  0  0  0  0  0  0  0  0  0  0  0
   -0.6444    2.4690    1.1604 C   0  0  0  0  0  0  0  0  0  0  0  0
    0.6986    2.4349    0.5683 C   0  0  0  0  0  0  0  0  0  0  0  0
    1.3804    3.4345    0.3814 O   0  0  0  0  0  0  0  0  0  0  0  0
  1  2  1  0
  2  3  1  0
  3  4  1  0
  4  5  1  0
  5  6  1  0
  6  7  1  0
  7  8  1  0
  8  9  1  0
  9 10  2  0
  3 11  2  0
 11 12  1  0
 12 13  1  0
 13 14  1  0
 14 15  1  0
 15 16  1  0
 16 17  2  0
 16 18  1  0
 18 19  1  0
 19 20  1  0
 19 21  1  0
 19 22  1  0
 15 23  1  0
 23 24  1  1
 24 25  1  0
 25 26  1  0
 26 27  2  0
 27 28  1  0
 28 29  2  0
 13  2  2  0
 27 23  1  0
  9  5  1  0
 28 12  1  0
M  END
