mol_ba12141af4e9
     RDKit          3D

 23 24  0  0  0  0  0  0  0  0999 V2000
   -5.0767   -1.1759    3.0650 C   0  0  0  0  0  0  0  0  0  0  0  0
   -4.5249   -0.8518    1.7085 C   0  0  0  0  0  0  0  0  0  0  0  0
   -5.2364   -1.1835    0.5568 C   0  0  0  0  0  0  0  0  0  0  0  0
   -4.7116   -0.9197   -0.7167 C   0  0  0  0  0  0  0  0  0  0  0  0
   -5.5355   -1.2999   -1.9183 C   0  0  0  0  0  0  0  0  0  0  0  0
   -3.4283   -0.3299   -0.8365 C   0  0  0  0  0  0  0  0  0  0  0  0
   -2.8332   -0.0642   -2.2008 C   0  0  0  0  0  0  0  0  0  0  0  0
   -2.7041    0.0410    0.3269 C   0  0  0  0  0  0  0  0  0  0  0  0
   -1.4464    0.6168    0.2106 N   0  0  0  0  0  0  0  0  0  0  0  0
   -0.5935    0.9802    1.3312 C   0  0  0  0  0  0  0  0  0  0  0  0
    0.7863    1.3524    0.8499 C   0  0  0  0  0  0  0  0  0  0  0  0
    1.4803    0.4842   -0.0086 C   0  0  0  0  0  0  0  0  0  0  0  0
    2.7623    0.7952   -0.4734 C   0  0  0  0  0  0  0  0  0  0  0  0
    3.4745   -0.1661   -1.3937 C   0  0  0  0  0  0  0  0  0  0  0  0
    4.4480   -1.1218   -0.6745 C   0  0  0  0  0  0  0  0  0  0  0  0
    5.3138   -1.8492   -1.7066 C   0  0  0  0  0  0  0  0  0  0  0  0
    3.7179   -2.1480    0.1958 C   0  0  0  0  0  0  0  0  0  0  0  0
    3.3158    2.0018   -0.0443 C   0  0  0  0  0  0  0  0  0  0  0  0
    4.6668    2.4709   -0.5005 C   0  0  0  0  0  0  0  0  0  0  0  0
    2.6669    2.8419    0.8018 N   0  0  0  0  0  0  0  0  0  0  0  0
    1.4425    2.5094    1.2524 C   0  0  0  0  0  0  0  0  0  0  0  0
    0.8854    3.4389    2.1043 N   0  0  0  0  0  0  0  0  0  0  0  0
   -3.2630   -0.2598    1.5793 C   0  0  0  0  0  0  0  0  0  0  0  0
  1  2  1  0
  2  3  2  0
  3  4  1  0
  4  5  1  0
  4  6  2  0
  6  7  1  0
  6  8  1  0
  8  9  1  0
  9 10  1  0
 10 11  1  0
 11 12  1  0
 12 13  2  0
 13 14  1  0
 14 15  1  0
 15 16  1  0
 15 17  1  0
 13 18  1  0
 18 19  1  0
 18 20  2  0
 20 21  1  0
 21 22  1  0
  8 23  2  0
 23  2  1  0
 21 11  2  0
M  END
