mol_40fa6af2924c
     RDKit          3D

 25 27  0  0  0  0  0  0  0  0999 V2000
    3.8290   -0.0656    2.4709 C   0  0  0  0  0  0  0  0  0  0  0  0
    3.5199   -0.6626    1.3096 C   0  0  0  0  0  0  0  0  0  0  0  0
    4.5098   -1.4202    0.4756 C   0  0  0  0  0  0  0  0  0  0  0  0
    2.1398   -0.5907    0.8002 C   0  0  0  0  0  0  0  0  0  0  0  0
    1.2888   -1.6818    1.0444 C   0  0  0  0  0  0  0  0  0  0  0  0
   -0.0674   -1.6962    0.6302 C   0  0  0  0  0  0  0  0  0  0  0  0
   -0.9301   -2.7928    0.8421 C   0  0  0  0  0  0  0  0  0  0  0  0
   -0.4992   -3.9623    1.4137 O   0  0  0  0  0  0  0  0  0  0  0  0
   -2.2660   -2.7147    0.4538 C   0  0  0  0  0  0  0  0  0  0  0  0
   -3.2065   -3.8615    0.6806 C   0  0  0  0  0  0  0  0  0  0  0  0
   -2.7792   -1.6240   -0.1546 N   0  0  0  0  0  0  0  0  0  0  0  0
   -1.9592   -0.5655   -0.3764 C   0  0  0  0  0  0  0  0  0  0  0  0
   -2.6401    0.5684   -1.0236 C   0  0  0  0  0  0  0  0  0  0  0  0
   -3.0788    0.4711   -2.3540 C   0  0  0  0  0  0  0  0  0  0  0  0
   -3.7185    1.5444   -2.9785 C   0  0  0  0  0  0  0  0  0  0  0  0
   -3.9368    2.7288   -2.2779 C   0  0  0  0  0  0  0  0  0  0  0  0
   -3.5235    2.8389   -0.9520 C   0  0  0  0  0  0  0  0  0  0  0  0
   -2.8840    1.7650   -0.3280 C   0  0  0  0  0  0  0  0  0  0  0  0
   -0.5895   -0.5505   -0.0140 C   0  0  0  0  0  0  0  0  0  0  0  0
    0.2794    0.5393   -0.2678 C   0  0  0  0  0  0  0  0  0  0  0  0
    1.6236    0.5237    0.1332 C   0  0  0  0  0  0  0  0  0  0  0  0
    2.4756    1.6906   -0.1920 C   0  0  0  0  0  0  0  0  0  0  0  0
    3.5696    1.6280   -0.7248 O   0  0  0  0  0  0  0  0  0  0  0  0
    1.8306    2.8175    0.2046 O   0  0  0  0  0  0  0  0  0  0  0  0
    2.5642    4.0164   -0.0462 C   0  0  0  0  0  0  0  0  0  0  0  0
  1  2  2  0
  2  3  1  0
  2  4  1  0
  4  5  2  0
  5  6  1  0
  6  7  2  0
  7  8  1  0
  7  9  1  0
  9 10  1  0
  9 11  2  0
 11 12  1  0
 12 13  1  0
 13 14  2  0
 14 15  1  0
 15 16  2  0
 16 17  1  0
 17 18  2  0
 12 19  2  0
 19 20  1  0
 20 21  2  0
 21 22  1  0
 22 23  2  0
 22 24  1  0
 24 25  1  0
 21  4  1  0
 19  6  1  0
 18 13  1  0
M  END
