mol_0cc1ab88ad99
     RDKit          3D

 30 34  0  0  0  0  0  0  0  0999 V2000
   -5.0812    1.8590   -0.7698 C   0  0  0  0  0  0  0  0  0  0  0  0
   -4.9110    0.8915    0.4131 C   0  0  1  0  0  0  0  0  0  0  0  0
   -3.9147   -0.1879    0.0366 C   0  0  0  0  0  0  0  0  0  0  0  0
   -2.6079   -0.1271    0.3456 C   0  0  0  0  0  0  0  0  0  0  0  0
   -1.7150   -1.0955   -0.1076 N   0  0  0  0  0  0  0  0  0  0  0  0
   -2.1977   -2.3442   -0.5191 C   0  0  0  0  0  0  0  0  0  0  0  0
   -1.4910   -3.3516   -0.5781 O   0  0  0  0  0  0  0  0  0  0  0  0
   -3.5436   -2.4013   -0.8569 N   0  0  0  0  0  0  0  0  0  0  0  0
   -4.0275   -3.6476   -1.4202 C   0  0  0  0  0  0  0  0  0  0  0  0
   -4.4261   -1.3571   -0.7041 C   0  0  0  0  0  0  0  0  0  0  0  0
   -5.5908   -1.3718   -1.0968 O   0  0  0  0  0  0  0  0  0  0  0  0
   -0.2436   -0.8987    0.0427 C   0  0  1  0  0  0  0  0  0  0  0  0
    0.6301   -1.4957   -1.0948 C   0  0  0  0  0  0  0  0  0  0  0  0
    2.1233   -1.4031   -0.7614 C   0  0  0  0  0  0  0  0  0  0  0  0
    2.5777    0.0288   -0.4537 C   0  0  2  0  0  0  0  0  0  0  0  0
    3.9934    0.1339   -0.0394 N   0  0  0  0  0  0  0  0  0  0  0  0
    4.5418   -0.8788    0.8629 C   0  0  0  0  0  0  0  0  0  0  0  0
    5.8195   -0.4620    1.5686 C   0  0  0  0  0  0  0  0  0  0  0  0
    6.7896    0.0882    0.5444 C   0  0  0  0  0  0  0  0  0  0  0  0
    6.1877    1.3246   -0.0909 C   0  0  0  0  0  0  0  0  0  0  0  0
    4.7593    1.1642   -0.5765 C   0  0  0  0  0  0  0  0  0  0  0  0
    4.3014    1.9877   -1.3714 O   0  0  0  0  0  0  0  0  0  0  0  0
    1.6637    0.6906    0.5916 C   0  0  0  0  0  0  0  0  0  0  0  0
    0.1576    0.6009    0.2317 C   0  0  1  0  0  0  0  0  0  0  0  0
   -0.1171    1.4794   -1.0205 C   0  0  0  0  0  0  0  0  0  0  0  0
   -0.6601    1.1404    1.4114 C   0  0  0  0  0  0  0  0  0  0  0  0
   -2.1343    0.9753    1.1872 C   0  0  0  0  0  0  0  0  0  0  0  0
   -3.0054    1.7827    1.8233 C   0  0  0  0  0  0  0  0  0  0  0  0
   -4.4883    1.6122    1.7142 C   0  0  1  0  0  0  0  0  0  0  0  0
   -5.0746    2.9023    1.8307 O   0  0  0  0  0  0  0  0  0  0  0  0
  2  1  1  6
  2  3  1  0
  3  4  2  0
  4  5  1  0
  5  6  1  0
  6  7  2  0
  6  8  1  0
  8  9  1  0
  8 10  1  0
 10 11  2  0
  5 12  1  0
 12 13  1  6
 13 14  1  0
 14 15  1  0
 15 16  1  1
 16 17  1  0
 17 18  1  0
 18 19  1  0
 19 20  1  0
 20 21  1  0
 21 22  2  0
 15 23  1  0
 23 24  1  0
 24 25  1  6
 24 26  1  0
 26 27  1  0
 27 28  2  0
 28 29  1  0
 29 30  1  6
 29  2  1  0
 10  3  1  0
 24 12  1  0
 27  4  1  0
 21 16  1  0
M  END
