mol_53eed38830fa
     RDKit          3D

 29 32  0  0  0  0  0  0  0  0999 V2000
    7.2445   -0.7733   -1.6677 C   0  0  0  0  0  0  0  0  0  0  0  0
    5.7954   -0.3727   -1.4571 C   0  0  0  0  0  0  0  0  0  0  0  0
    5.2727   -1.1582   -0.3874 O   0  0  0  0  0  0  0  0  0  0  0  0
    3.9759   -0.9364   -0.0174 C   0  0  0  0  0  0  0  0  0  0  0  0
    3.5378   -1.7106    1.0540 C   0  0  0  0  0  0  0  0  0  0  0  0
    2.2252   -1.6079    1.5437 C   0  0  0  0  0  0  0  0  0  0  0  0
    1.8311   -2.5033    2.6884 C   0  0  0  0  0  0  0  0  0  0  0  0
    1.3416   -0.6830    0.9392 C   0  0  0  0  0  0  0  0  0  0  0  0
   -0.0765   -0.5427    1.3779 C   0  0  0  0  0  0  0  0  0  0  0  0
   -0.4472   -1.0322    2.4413 O   0  0  0  0  0  0  0  0  0  0  0  0
   -0.9672    0.1558    0.5294 N   0  0  0  0  0  0  0  0  0  0  0  0
   -0.4718    1.0729   -0.4119 C   0  0  0  0  0  0  0  0  0  0  0  0
    0.8433    1.0841   -0.7383 C   0  0  0  0  0  0  0  0  0  0  0  0
    1.3112    2.1014   -1.7112 C   0  0  0  0  0  0  0  0  0  0  0  0
    0.8966    2.2695   -2.8432 O   0  0  0  0  0  0  0  0  0  0  0  0
    2.2668    2.8878   -1.1859 O   0  0  0  0  0  0  0  0  0  0  0  0
    1.7739    0.1119   -0.1323 C   0  0  0  0  0  0  0  0  0  0  0  0
    3.0931   -0.0355   -0.6083 C   0  0  0  0  0  0  0  0  0  0  0  0
   -1.4134    2.1216   -0.9751 C   0  0  0  0  0  0  0  0  0  0  0  0
   -2.7166    2.2701   -0.2075 C   0  0  0  0  0  0  0  0  0  0  0  0
   -3.3815    0.9002    0.0019 C   0  0  2  0  0  0  0  0  0  0  0  0
   -3.6655    0.2693   -1.3876 C   0  0  0  0  0  0  0  0  0  0  0  0
   -4.7296    1.1360    0.7368 C   0  0  0  0  0  0  0  0  0  0  0  0
   -5.4524   -0.1265    1.1945 C   0  0  0  0  0  0  0  0  0  0  0  0
   -4.8186   -0.7176    2.3374 O   0  0  0  0  0  0  0  0  0  0  0  0
   -3.8077   -1.6060    2.1837 C   0  0  0  0  0  0  0  0  0  0  0  0
   -3.6532   -2.5230    2.9831 O   0  0  0  0  0  0  0  0  0  0  0  0
   -2.9105   -1.4147    0.9874 C   0  0  0  0  0  0  0  0  0  0  0  0
   -2.4153    0.0529    0.8897 C   0  0  1  0  0  0  0  0  0  0  0  0
  1  2  1  0
  2  3  1  0
  3  4  1  0
  4  5  2  0
  5  6  1  0
  6  7  1  0
  6  8  2  0
  8  9  1  0
  9 10  2  0
  9 11  1  0
 11 12  1  0
 12 13  2  0
 13 14  1  0
 14 15  2  0
 14 16  1  0
 13 17  1  0
 17 18  2  0
 12 19  1  0
 19 20  1  0
 20 21  1  0
 21 22  1  6
 21 23  1  0
 23 24  1  0
 24 25  1  0
 25 26  1  0
 26 27  2  0
 26 28  1  0
 29 28  1  6
 18  4  1  0
 29 21  1  0
 17  8  1  0
 29 11  1  0
M  END
