mol_5502904c5766
     RDKit          3D

 24 26  0  0  0  0  0  0  0  0999 V2000
   -3.2367   -3.1211    1.4903 C   0  0  0  0  0  0  0  0  0  0  0  0
   -3.3846   -2.0740    0.3951 C   0  0  0  0  0  0  0  0  0  0  0  0
   -3.2582   -0.6246    0.9011 C   0  0  1  0  0  0  0  0  0  0  0  0
   -1.9623   -0.2532    1.6590 C   0  0  0  0  0  0  0  0  0  0  0  0
   -0.6819    0.0586    0.8520 C   0  0  1  0  0  0  0  0  0  0  0  0
    0.3440    0.7284    1.7925 C   0  0  0  0  0  0  0  0  0  0  0  0
    1.6466    1.0774    1.0753 C   0  0  0  0  0  0  0  0  0  0  0  0
    2.2585   -0.1602    0.4052 C   0  0  2  0  0  0  0  0  0  0  0  0
    3.5528    0.1130   -0.2502 N   0  0  0  0  0  0  0  0  0  0  0  0
    4.6375   -0.8180    0.0547 C   0  0  0  0  0  0  0  0  0  0  0  0
    6.0174   -0.3274   -0.3437 C   0  0  0  0  0  0  0  0  0  0  0  0
    5.9774    0.1505   -1.7799 C   0  0  0  0  0  0  0  0  0  0  0  0
    5.0013    1.3038   -1.8875 C   0  0  0  0  0  0  0  0  0  0  0  0
    3.6306    1.0252   -1.2992 C   0  0  0  0  0  0  0  0  0  0  0  0
    2.6650    1.6692   -1.7109 O   0  0  0  0  0  0  0  0  0  0  0  0
    1.2538   -0.8474   -0.5272 C   0  0  0  0  0  0  0  0  0  0  0  0
   -0.0523   -1.1792    0.1981 C   0  0  0  0  0  0  0  0  0  0  0  0
   -3.6020    0.3751   -0.1152 N   0  0  0  0  0  0  0  0  0  0  0  0
   -4.4345    1.5135    0.1972 C   0  0  0  0  0  0  0  0  0  0  0  0
   -4.1540    2.5014   -0.9196 C   0  0  0  0  0  0  0  0  0  0  0  0
   -3.8454    1.6094   -2.1135 C   0  0  2  0  0  0  0  0  0  0  0  0
   -5.0403    1.3015   -2.8133 O   0  0  0  0  0  0  0  0  0  0  0  0
   -3.2321    0.3725   -1.4557 C   0  0  0  0  0  0  0  0  0  0  0  0
   -2.5935   -0.4779   -2.0551 O   0  0  0  0  0  0  0  0  0  0  0  0
  1  2  1  0
  3  2  1  6
  3  4  1  0
  5  4  1  1
  5  6  1  0
  6  7  1  0
  7  8  1  0
  8  9  1  6
  9 10  1  0
 10 11  1  0
 11 12  1  0
 12 13  1  0
 13 14  1  0
 14 15  2  0
  8 16  1  0
 16 17  1  0
  3 18  1  0
 18 19  1  0
 19 20  1  0
 20 21  1  0
 21 22  1  1
 21 23  1  0
 23 24  2  0
 17  5  1  0
 23 18  1  0
 14  9  1  0
M  END
