mol_eaee3f817eec
     RDKit          3D

 28 32  0  0  0  0  0  0  0  0999 V2000
   -3.7059   -3.1515    0.6953 C   0  0  0  0  0  0  0  0  0  0  0  0
   -3.1944   -1.8179    0.4249 N   0  0  0  0  0  0  0  0  0  0  0  0
   -4.0646   -0.8220    0.0234 C   0  0  0  0  0  0  0  0  0  0  0  0
   -5.2644   -1.0115   -0.1790 O   0  0  0  0  0  0  0  0  0  0  0  0
   -3.5096    0.4075   -0.1955 N   0  0  0  0  0  0  0  0  0  0  0  0
   -4.2459    1.4983   -0.8273 C   0  0  1  0  0  0  0  0  0  0  0  0
   -5.3123    2.1379    0.0647 C   0  0  0  0  0  0  0  0  0  0  0  0
   -6.1258    2.9753   -0.3001 O   0  0  0  0  0  0  0  0  0  0  0  0
   -5.2416    1.7952    1.3677 O   0  0  0  0  0  0  0  0  0  0  0  0
   -3.1628    2.5402   -1.1440 C   0  0  0  0  0  0  0  0  0  0  0  0
   -1.8385    1.7982   -0.9509 C   0  0  0  0  0  0  0  0  0  0  0  0
   -2.1656    0.7831    0.1432 C   0  0  2  0  0  0  0  0  0  0  0  0
   -1.2552   -0.3869    0.2520 C   0  0  0  0  0  0  0  0  0  0  0  0
    0.1329   -0.2617    0.2655 C   0  0  0  0  0  0  0  0  0  0  0  0
    0.9548   -1.3872    0.4637 C   0  0  0  0  0  0  0  0  0  0  0  0
    2.3754   -1.3336    0.4788 C   0  0  0  0  0  0  0  0  0  0  0  0
    3.0788   -0.1643    0.1864 N   0  0  0  0  0  0  0  0  0  0  0  0
    3.0363    0.3331   -1.1938 C   0  0  0  0  0  0  0  0  0  0  0  0
    4.4295    0.7628   -1.6467 C   0  0  0  0  0  0  0  0  0  0  0  0
    5.0270    1.8306   -0.7288 C   0  0  0  0  0  0  0  0  0  0  0  0
    4.5676    1.6948    0.7245 C   0  0  0  0  0  0  0  0  0  0  0  0
    4.1709    0.2607    1.0631 C   0  0  0  0  0  0  0  0  0  0  0  0
    3.0662   -2.5085    0.7674 C   0  0  0  0  0  0  0  0  0  0  0  0
    2.3457   -3.6614    0.9933 C   0  0  0  0  0  0  0  0  0  0  0  0
    1.0024   -3.7256    0.9561 N   0  0  0  0  0  0  0  0  0  0  0  0
    0.3123   -2.6166    0.7014 C   0  0  0  0  0  0  0  0  0  0  0  0
   -1.0152   -2.7275    0.6931 N   0  0  0  0  0  0  0  0  0  0  0  0
   -1.7903   -1.6444    0.4635 C   0  0  0  0  0  0  0  0  0  0  0  0
  1  2  1  0
  2  3  1  0
  3  4  2  0
  3  5  1  0
  5  6  1  0
  6  7  1  1
  7  8  2  0
  7  9  1  0
  6 10  1  0
 10 11  1  0
 12 11  1  6
 12 13  1  0
 13 14  2  0
 14 15  1  0
 15 16  2  0
 16 17  1  0
 17 18  1  0
 18 19  1  0
 19 20  1  0
 20 21  1  0
 21 22  1  0
 16 23  1  0
 23 24  2  0
 24 25  1  0
 25 26  2  0
 26 27  1  0
 27 28  2  0
 28  2  1  0
 12  5  1  0
 28 13  1  0
 26 15  1  0
 22 17  1  0
M  END
