mol_7ff994edcd04
     RDKit          3D

 26 29  0  0  0  0  0  0  0  0999 V2000
   -2.1150    3.4420   -1.7106 C   0  0  0  0  0  0  0  0  0  0  0  0
   -2.1363    2.0522   -1.1380 C   0  0  0  0  0  0  0  0  0  0  0  0
   -2.9627    1.6021   -0.1698 C   0  0  0  0  0  0  0  0  0  0  0  0
   -2.8884    0.2042    0.2553 C   0  0  0  0  0  0  0  0  0  0  0  0
   -2.0529   -0.6625   -0.3599 C   0  0  0  0  0  0  0  0  0  0  0  0
   -1.1849   -0.2189   -1.3625 N   0  0  0  0  0  0  0  0  0  0  0  0
   -0.2361   -1.1115   -2.0363 C   0  0  0  0  0  0  0  0  0  0  0  0
    1.2176   -0.9276   -1.5774 C   0  0  0  0  0  0  0  0  0  0  0  0
    1.4814   -1.4722   -0.1755 C   0  0  0  0  0  0  0  0  0  0  0  0
    2.8618   -1.2467    0.2443 N   0  0  0  0  0  0  0  0  0  0  0  0
    3.9218   -2.0786   -0.3015 C   0  0  0  0  0  0  0  0  0  0  0  0
    5.0834   -1.2254   -0.7935 C   0  0  0  0  0  0  0  0  0  0  0  0
    5.4484   -0.0990    0.1796 C   0  0  0  0  0  0  0  0  0  0  0  0
    4.6584   -0.1559    1.4926 C   0  0  1  0  0  0  0  0  0  0  0  0
    4.9647    1.0601    2.3623 C   0  0  0  0  0  0  0  0  0  0  0  0
    3.1648   -0.2679    1.1866 C   0  0  0  0  0  0  0  0  0  0  0  0
    2.3155    0.4186    1.7470 O   0  0  0  0  0  0  0  0  0  0  0  0
   -1.1629    1.1147   -1.7840 C   0  0  0  0  0  0  0  0  0  0  0  0
   -0.4096    1.5335   -2.6639 O   0  0  0  0  0  0  0  0  0  0  0  0
   -2.0712   -2.1273    0.0275 C   0  0  0  0  0  0  0  0  0  0  0  0
   -2.8484   -2.4065    1.3098 C   0  0  0  0  0  0  0  0  0  0  0  0
   -4.0602   -1.6596    1.3175 O   0  0  0  0  0  0  0  0  0  0  0  0
   -3.7746   -0.2580    1.3988 C   0  0  2  0  0  0  0  0  0  0  0  0
   -5.1044    0.4820    1.4580 C   0  0  0  0  0  0  0  0  0  0  0  0
   -4.8291    1.9665    1.6019 C   0  0  0  0  0  0  0  0  0  0  0  0
   -4.0401    2.5012    0.4094 C   0  0  0  0  0  0  0  0  0  0  0  0
  1  2  1  0
  2  3  2  0
  3  4  1  0
  4  5  2  0
  5  6  1  0
  6  7  1  0
  7  8  1  0
  8  9  1  0
  9 10  1  0
 10 11  1  0
 11 12  1  0
 12 13  1  0
 13 14  1  0
 14 15  1  1
 14 16  1  0
 16 17  2  0
  6 18  1  0
 18 19  2  0
  5 20  1  0
 20 21  1  0
 21 22  1  0
 22 23  1  0
 23 24  1  6
 24 25  1  0
 25 26  1  0
 18  2  1  0
 26  3  1  0
 23  4  1  0
 16 10  1  0
M  END
