mol_ec3300cad4c7
     RDKit          3D

 26 28  0  0  0  0  0  0  0  0999 V2000
   -6.5447   -0.0320   -0.2531 C   0  0  0  0  0  0  0  0  0  0  0  0
   -5.6923    1.0655   -0.8744 C   0  0  0  0  0  0  0  0  0  0  0  0
   -4.2417    1.0094   -0.4026 C   0  0  0  0  0  0  0  0  0  0  0  0
   -3.6590   -0.2227   -0.8491 O   0  0  0  0  0  0  0  0  0  0  0  0
   -2.3623   -0.3309   -0.4093 C   0  0  0  0  0  0  0  0  0  0  0  0
   -2.1047   -0.9459    0.8248 C   0  0  0  0  0  0  0  0  0  0  0  0
   -3.2130   -1.4633    1.6970 C   0  0  0  0  0  0  0  0  0  0  0  0
   -0.7771   -1.0550    1.2576 C   0  0  0  0  0  0  0  0  0  0  0  0
    0.2856   -0.5986    0.4628 C   0  0  0  0  0  0  0  0  0  0  0  0
    0.0111   -0.0085   -0.7866 C   0  0  0  0  0  0  0  0  0  0  0  0
   -1.3163    0.0952   -1.2469 C   0  0  0  0  0  0  0  0  0  0  0  0
   -1.6159    0.6233   -2.6345 C   0  0  0  0  0  0  0  0  0  0  0  0
   -0.4084    0.7895   -3.5221 C   0  0  0  0  0  0  0  0  0  0  0  0
   -0.6916    1.0241   -4.8515 O   0  0  0  0  0  0  0  0  0  0  0  0
    0.8507    0.7288   -3.0669 C   0  0  0  0  0  0  0  0  0  0  0  0
    1.1748    0.5117   -1.6116 C   0  0  2  0  0  0  0  0  0  0  0  0
    2.3627   -0.4449   -1.4236 C   0  0  0  0  0  0  0  0  0  0  0  0
    2.7586   -0.5208   -0.0136 N   0  0  0  0  0  0  0  0  0  0  0  0
    4.1098   -0.4917    0.3079 C   0  0  0  0  0  0  0  0  0  0  0  0
    4.9853   -0.3602   -0.5473 O   0  0  0  0  0  0  0  0  0  0  0  0
    4.4682   -0.6439    1.7795 C   0  0  0  0  0  0  0  0  0  0  0  0
    5.9749   -0.5949    2.0162 C   0  0  0  0  0  0  0  0  0  0  0  0
    6.5990    0.7462    1.7350 C   0  0  0  0  0  0  0  0  0  0  0  0
    7.7816    0.9404    1.5018 O   0  0  0  0  0  0  0  0  0  0  0  0
    5.7570    1.7886    1.8547 O   0  0  0  0  0  0  0  0  0  0  0  0
    1.7013   -0.7593    0.9704 C   0  0  0  0  0  0  0  0  0  0  0  0
  1  2  1  0
  2  3  1  0
  3  4  1  0
  4  5  1  0
  5  6  1  0
  6  7  1  0
  6  8  2  0
  8  9  1  0
  9 10  2  0
 10 11  1  0
 11 12  1  0
 12 13  1  0
 13 14  1  0
 13 15  2  0
 15 16  1  0
 16 17  1  6
 17 18  1  0
 18 19  1  0
 19 20  2  0
 19 21  1  0
 21 22  1  0
 22 23  1  0
 23 24  2  0
 23 25  1  0
 18 26  1  0
 11  5  2  0
 26  9  1  0
 16 10  1  0
M  END
