mol_063cbbd3e73e
     RDKit          3D

 29 33  0  0  0  0  0  0  0  0999 V2000
    5.5790    1.0576    2.1469 C   0  0  0  0  0  0  0  0  0  0  0  0
    4.6155    1.3863    1.1336 N   0  0  0  0  0  0  0  0  0  0  0  0
    4.9716    1.8751   -0.1039 C   0  0  0  0  0  0  0  0  0  0  0  0
    6.1294    2.1064   -0.4397 O   0  0  0  0  0  0  0  0  0  0  0  0
    3.7754    2.1705   -1.0185 C   0  0  0  0  0  0  0  0  0  0  0  0
    2.6567    1.2270   -0.7654 N   0  0  0  0  0  0  0  0  0  0  0  0
    2.9713   -0.1059   -1.3308 C   0  0  0  0  0  0  0  0  0  0  0  0
    1.8699   -1.0918   -1.0286 C   0  0  0  0  0  0  0  0  0  0  0  0
    2.1264   -2.4633   -0.9426 C   0  0  0  0  0  0  0  0  0  0  0  0
    1.0847   -3.3587   -0.6942 C   0  0  0  0  0  0  0  0  0  0  0  0
   -0.2125   -2.8873   -0.4512 C   0  0  0  0  0  0  0  0  0  0  0  0
   -0.4702   -1.5066   -0.4622 C   0  0  0  0  0  0  0  0  0  0  0  0
    0.5558   -0.6323   -0.8614 C   0  0  0  0  0  0  0  0  0  0  0  0
    0.1964    0.8006   -1.2027 C   0  0  1  0  0  0  0  0  0  0  0  0
   -0.8166    1.3560   -0.1951 C   0  0  0  0  0  0  0  0  0  0  0  0
   -2.0016    0.4238    0.0031 C   0  0  0  0  0  0  0  0  0  0  0  0
   -3.2676    0.9196    0.3745 C   0  0  0  0  0  0  0  0  0  0  0  0
   -3.4526    2.2790    0.4083 O   0  0  0  0  0  0  0  0  0  0  0  0
   -3.2136    2.7917    1.7222 C   0  0  0  0  0  0  0  0  0  0  0  0
   -4.3330    0.0405    0.6227 C   0  0  0  0  0  0  0  0  0  0  0  0
   -5.6944    0.5447    0.9492 C   0  0  0  0  0  0  0  0  0  0  0  0
   -6.0074    1.6387    1.3773 O   0  0  0  0  0  0  0  0  0  0  0  0
   -6.6421   -0.3849    0.7101 O   0  0  0  0  0  0  0  0  0  0  0  0
   -4.0919   -1.3414    0.6144 C   0  0  0  0  0  0  0  0  0  0  0  0
   -2.8250   -1.8493    0.2913 C   0  0  0  0  0  0  0  0  0  0  0  0
   -1.7883   -0.9732   -0.0792 C   0  0  0  0  0  0  0  0  0  0  0  0
   -2.5325   -3.3170    0.4993 C   0  0  0  0  0  0  0  0  0  0  0  0
   -1.3655   -3.8515   -0.3318 C   0  0  0  0  0  0  0  0  0  0  0  0
    1.4210    1.7286   -1.3948 C   0  0  0  0  0  0  0  0  0  0  0  0
  1  2  1  0
  2  3  1  0
  3  4  2  0
  3  5  1  0
  5  6  1  0
  6  7  1  0
  7  8  1  0
  8  9  1  0
  9 10  2  0
 10 11  1  0
 11 12  2  0
 12 13  1  0
 13 14  1  0
 14 15  1  1
 15 16  1  0
 16 17  2  0
 17 18  1  0
 18 19  1  0
 17 20  1  0
 20 21  1  0
 21 22  2  0
 21 23  1  0
 20 24  2  0
 24 25  1  0
 25 26  2  0
 25 27  1  0
 27 28  1  0
 14 29  1  0
 29  6  1  0
 13  8  2  0
 26 16  1  0
 28 11  1  0
 26 12  1  0
M  END
