mol_23acbb758482
     RDKit          3D

 25 26  0  0  0  0  0  0  0  0999 V2000
   -4.2003    1.3165   -3.6610 C   0  0  0  0  0  0  0  0  0  0  0  0
   -3.4067    0.4600   -2.6872 C   0  0  0  0  0  0  0  0  0  0  0  0
   -3.5918    0.9377   -1.2455 C   0  0  0  0  0  0  0  0  0  0  0  0
   -2.8378    0.0718   -0.2613 C   0  0  0  0  0  0  0  0  0  0  0  0
   -1.5005    0.4115    0.0227 C   0  0  0  0  0  0  0  0  0  0  0  0
   -0.6920   -0.3336    0.9043 C   0  0  0  0  0  0  0  0  0  0  0  0
    0.6255    0.1517    1.0232 N   0  0  0  0  0  0  0  0  0  0  0  0
    1.7932   -0.5450    1.2737 C   0  0  0  0  0  0  0  0  0  0  0  0
    1.9391   -1.7631    1.2628 O   0  0  0  0  0  0  0  0  0  0  0  0
    2.9990    0.3888    1.4207 C   0  0  0  0  0  0  0  0  0  0  0  0
    3.5483    0.6999    0.1008 N   0  0  0  0  0  0  0  0  0  0  0  0
    4.7064   -0.0709   -0.3344 C   0  0  0  0  0  0  0  0  0  0  0  0
    5.0023    0.0480   -1.8193 C   0  0  0  0  0  0  0  0  0  0  0  0
    4.9394    1.5075   -2.2285 C   0  0  0  0  0  0  0  0  0  0  0  0
    3.5351    2.0342   -1.9963 C   0  0  0  0  0  0  0  0  0  0  0  0
    2.9704    1.7226   -0.6256 C   0  0  0  0  0  0  0  0  0  0  0  0
    1.9688    2.3157   -0.2141 O   0  0  0  0  0  0  0  0  0  0  0  0
   -1.2572   -1.4195    1.5906 C   0  0  0  0  0  0  0  0  0  0  0  0
   -0.6029   -2.2008    2.7102 C   0  0  0  0  0  0  0  0  0  0  0  0
   -0.2740   -1.3493    3.9297 C   0  0  0  0  0  0  0  0  0  0  0  0
   -2.5940   -1.7730    1.2866 C   0  0  0  0  0  0  0  0  0  0  0  0
   -3.3833   -1.0546    0.3696 C   0  0  0  0  0  0  0  0  0  0  0  0
   -4.7753   -1.5174    0.0977 C   0  0  0  0  0  0  0  0  0  0  0  0
   -5.4532   -1.2889   -0.8854 O   0  0  0  0  0  0  0  0  0  0  0  0
   -5.2747   -2.2519    1.1107 O   0  0  0  0  0  0  0  0  0  0  0  0
  1  2  1  0
  2  3  1  0
  3  4  1  0
  4  5  2  0
  5  6  1  0
  6  7  1  0
  7  8  1  0
  8  9  2  0
  8 10  1  0
 10 11  1  0
 11 12  1  0
 12 13  1  0
 13 14  1  0
 14 15  1  0
 15 16  1  0
 16 17  2  0
  6 18  2  0
 18 19  1  0
 19 20  1  0
 18 21  1  0
 21 22  2  0
 22 23  1  0
 23 24  2  0
 23 25  1  0
 22  4  1  0
 16 11  1  0
M  END
