mol_6ee72a6f6e20
     RDKit          3D

 24 26  0  0  0  0  0  0  0  0999 V2000
   -5.9695    2.5768   -0.6754 C   0  0  0  0  0  0  0  0  0  0  0  0
   -4.9593    1.5050   -0.3814 C   0  0  0  0  0  0  0  0  0  0  0  0
   -5.3699    0.2643    0.1075 C   0  0  0  0  0  0  0  0  0  0  0  0
   -4.4353   -0.7372    0.3825 C   0  0  0  0  0  0  0  0  0  0  0  0
   -3.0557   -0.5320    0.1877 C   0  0  0  0  0  0  0  0  0  0  0  0
   -2.6420    0.7108   -0.3351 C   0  0  0  0  0  0  0  0  0  0  0  0
   -3.5944    1.7176   -0.6065 C   0  0  0  0  0  0  0  0  0  0  0  0
   -3.2436    2.9475   -1.1095 O   0  0  0  0  0  0  0  0  0  0  0  0
   -1.2028    0.9698   -0.6312 C   0  0  0  0  0  0  0  0  0  0  0  0
   -0.8769    2.0715   -1.0767 O   0  0  0  0  0  0  0  0  0  0  0  0
   -0.1995   -0.1589   -0.4519 C   0  0  1  0  0  0  0  0  0  0  0  0
    1.2111    0.4157   -0.2120 C   0  0  0  0  0  0  0  0  0  0  0  0
    2.3192   -0.6299   -0.3593 C   0  0  0  0  0  0  0  0  0  0  0  0
    3.6328   -0.0634   -0.0774 N   0  0  0  0  0  0  0  0  0  0  0  0
    4.2716    0.7851   -1.0706 C   0  0  0  0  0  0  0  0  0  0  0  0
    5.7706    0.5174   -1.1483 C   0  0  0  0  0  0  0  0  0  0  0  0
    6.4110    0.2815    0.2216 C   0  0  0  0  0  0  0  0  0  0  0  0
    5.4736    0.5960    1.3797 C   0  0  0  0  0  0  0  0  0  0  0  0
    4.1535   -0.1276    1.2094 C   0  0  0  0  0  0  0  0  0  0  0  0
    3.5891   -0.6804    2.1493 O   0  0  0  0  0  0  0  0  0  0  0  0
   -0.6444   -1.0538    0.7037 C   0  0  0  0  0  0  0  0  0  0  0  0
   -2.0580   -1.6464    0.5028 C   0  0  0  0  0  0  0  0  0  0  0  0
   -2.4067   -2.3965    1.8111 C   0  0  0  0  0  0  0  0  0  0  0  0
   -2.0652   -2.6652   -0.6549 C   0  0  0  0  0  0  0  0  0  0  0  0
  1  2  1  0
  2  3  1  0
  3  4  2  0
  4  5  1  0
  5  6  2  0
  6  7  1  0
  7  8  1  0
  6  9  1  0
  9 10  2  0
  9 11  1  0
 11 12  1  1
 12 13  1  0
 13 14  1  0
 14 15  1  0
 15 16  1  0
 16 17  1  0
 17 18  1  0
 18 19  1  0
 19 20  2  0
 11 21  1  0
 21 22  1  0
 22 23  1  0
 22 24  1  0
  7  2  2  0
 19 14  1  0
 22  5  1  0
M  END
