mol_64cdcaccbe87
     RDKit          3D

 26 29  0  0  0  0  0  0  0  0999 V2000
    5.8320   -1.8668   -0.5996 C   0  0  0  0  0  0  0  0  0  0  0  0
    4.5159   -1.8128   -1.1360 O   0  0  0  0  0  0  0  0  0  0  0  0
    3.6598   -0.9037   -0.5793 C   0  0  0  0  0  0  0  0  0  0  0  0
    3.9474   -0.0404    0.4697 C   0  0  0  0  0  0  0  0  0  0  0  0
    2.9696    0.8450    0.9316 C   0  0  0  0  0  0  0  0  0  0  0  0
    1.6862    0.8887    0.3567 C   0  0  0  0  0  0  0  0  0  0  0  0
    1.3768   -0.0075   -0.6832 C   0  0  0  0  0  0  0  0  0  0  0  0
    2.3843   -0.8782   -1.1475 C   0  0  0  0  0  0  0  0  0  0  0  0
    0.0237   -0.0612   -1.3624 C   0  0  0  0  0  0  0  0  0  0  0  0
   -1.1693   -0.1913   -0.4300 C   0  0  0  0  0  0  0  0  0  0  0  0
   -1.5579   -1.3984    0.0447 C   0  0  0  0  0  0  0  0  0  0  0  0
   -0.8584   -2.6622   -0.1423 C   0  0  0  0  0  0  0  0  0  0  0  0
   -1.2370   -3.7728    0.5058 C   0  0  0  0  0  0  0  0  0  0  0  0
   -2.3481   -3.7626    1.4216 C   0  0  0  0  0  0  0  0  0  0  0  0
   -3.0872   -2.6649    1.6222 C   0  0  0  0  0  0  0  0  0  0  0  0
   -2.7921   -1.3993    0.8934 C   0  0  0  0  0  0  0  0  0  0  0  0
   -3.6130   -0.4218    1.0358 N   0  0  0  0  0  0  0  0  0  0  0  0
   -3.3496    0.7744    0.2335 C   0  0  2  0  0  0  0  0  0  0  0  0
   -4.3186    0.8132   -0.9802 C   0  0  0  0  0  0  0  0  0  0  0  0
   -4.0346   -0.1930   -1.9599 O   0  0  0  0  0  0  0  0  0  0  0  0
   -1.9397    0.9527   -0.1577 N   0  0  0  0  0  0  0  0  0  0  0  0
   -1.5438    2.2949   -0.2532 C   0  0  0  0  0  0  0  0  0  0  0  0
   -2.3912    3.1872   -0.3806 O   0  0  0  0  0  0  0  0  0  0  0  0
   -0.0578    2.6773   -0.1674 C   0  0  1  0  0  0  0  0  0  0  0  0
    0.0700    4.1826    0.1277 C   0  0  0  0  0  0  0  0  0  0  0  0
    0.6881    1.8819    0.9176 C   0  0  0  0  0  0  0  0  0  0  0  0
  1  2  1  0
  2  3  1  0
  3  4  1  0
  4  5  2  0
  5  6  1  0
  6  7  2  0
  7  8  1  0
  7  9  1  0
  9 10  1  0
 10 11  2  0
 11 12  1  0
 12 13  2  0
 13 14  1  0
 14 15  2  0
 15 16  1  0
 16 17  2  0
 17 18  1  0
 18 19  1  6
 19 20  1  0
 18 21  1  0
 21 22  1  0
 22 23  2  0
 22 24  1  0
 24 25  1  1
 24 26  1  0
  8  3  2  0
 21 10  1  0
 26  6  1  0
 16 11  1  0
M  END
