mol_508e968921cf
     RDKit          3D

 31 35  0  0  0  0  0  0  0  0999 V2000
    6.7910    0.3551   -0.2245 C   0  0  0  0  0  0  0  0  0  0  0  0
    6.1591    0.6594    1.1217 C   0  0  0  0  0  0  0  0  0  0  0  0
    4.8278    0.1058    1.2192 N   0  0  0  0  0  0  0  0  0  0  0  0
    3.7149    0.7643    0.7565 C   0  0  0  0  0  0  0  0  0  0  0  0
    3.7443    1.8683    0.2215 O   0  0  0  0  0  0  0  0  0  0  0  0
    2.4178    0.0191    0.9740 C   0  0  0  0  0  0  0  0  0  0  0  0
    2.3732   -1.3539    0.2816 C   0  0  2  0  0  0  0  0  0  0  0  0
    3.2335   -2.2502    1.0093 O   0  0  0  0  0  0  0  0  0  0  0  0
    2.8338   -1.3321   -1.1815 C   0  0  0  0  0  0  0  0  0  0  0  0
    1.8140   -0.6490   -2.0897 C   0  0  0  0  0  0  0  0  0  0  0  0
    0.4807   -1.3804   -1.9287 C   0  0  2  0  0  0  0  0  0  0  0  0
   -0.5655   -0.9693   -2.9512 C   0  0  0  0  0  0  0  0  0  0  0  0
   -1.3074    0.2719   -2.5078 C   0  0  0  0  0  0  0  0  0  0  0  0
   -1.9334    0.0542   -1.1459 C   0  0  0  0  0  0  0  0  0  0  0  0
   -1.2431   -0.7528   -0.2067 C   0  0  0  0  0  0  0  0  0  0  0  0
   -1.7910   -0.8975    1.0692 C   0  0  0  0  0  0  0  0  0  0  0  0
   -3.0008   -0.2827    1.4159 C   0  0  0  0  0  0  0  0  0  0  0  0
   -3.6953    0.5230    0.5064 C   0  0  0  0  0  0  0  0  0  0  0  0
   -4.9092    1.1389    0.8797 C   0  0  0  0  0  0  0  0  0  0  0  0
   -5.5825    1.9744   -0.0174 C   0  0  0  0  0  0  0  0  0  0  0  0
   -5.0479    2.2045   -1.2696 C   0  0  0  0  0  0  0  0  0  0  0  0
   -5.7300    3.0388   -2.1040 O   0  0  0  0  0  0  0  0  0  0  0  0
   -3.8564    1.5974   -1.6562 C   0  0  0  0  0  0  0  0  0  0  0  0
   -3.1523    0.7240   -0.7894 C   0  0  0  0  0  0  0  0  0  0  0  0
   -5.5253    0.8856    2.2240 C   0  0  0  0  0  0  0  0  0  0  0  0
   -4.6839    0.1498    3.1267 N   0  0  0  0  0  0  0  0  0  0  0  0
   -3.5099   -0.4643    2.7987 C   0  0  0  0  0  0  0  0  0  0  0  0
   -2.9031   -1.1229    3.6351 O   0  0  0  0  0  0  0  0  0  0  0  0
    0.0300   -1.3227   -0.5409 N   0  0  0  0  0  0  0  0  0  0  0  0
    0.9067   -1.8566    0.4099 C   0  0  0  0  0  0  0  0  0  0  0  0
    0.6031   -2.5803    1.3583 O   0  0  0  0  0  0  0  0  0  0  0  0
  1  2  1  0
  2  3  1  0
  3  4  1  0
  4  5  2  0
  4  6  1  0
  6  7  1  0
  7  8  1  1
  7  9  1  0
  9 10  1  0
 11 10  1  1
 11 12  1  0
 12 13  1  0
 13 14  1  0
 14 15  2  0
 15 16  1  0
 16 17  2  0
 17 18  1  0
 18 19  2  0
 19 20  1  0
 20 21  2  0
 21 22  1  0
 21 23  1  0
 23 24  2  0
 19 25  1  0
 25 26  1  0
 26 27  1  0
 27 28  2  0
 15 29  1  0
 29 30  1  0
 30 31  2  0
 30  7  1  0
 29 11  1  0
 24 14  1  0
 27 17  1  0
 24 18  1  0
M  END
