mol_0c96e3d47cbe
     RDKit          3D

 27 29  0  0  0  0  0  0  0  0999 V2000
    0.8299    1.1979   -2.8980 C   0  0  0  0  0  0  0  0  0  0  0  0
    1.0282   -0.2619   -2.5484 C   0  0  0  0  0  0  0  0  0  0  0  0
    1.2479   -1.0789   -3.4453 O   0  0  0  0  0  0  0  0  0  0  0  0
    0.9665   -0.6028   -1.2001 N   0  0  0  0  0  0  0  0  0  0  0  0
    1.8097   -1.6008   -0.6929 C   0  0  0  0  0  0  0  0  0  0  0  0
    1.5231   -2.3089    0.2780 O   0  0  0  0  0  0  0  0  0  0  0  0
    3.1208   -1.8286   -1.4410 C   0  0  0  0  0  0  0  0  0  0  0  0
    4.2356   -2.2956   -0.5054 C   0  0  0  0  0  0  0  0  0  0  0  0
    4.6664   -1.2272    0.4425 C   0  0  0  0  0  0  0  0  0  0  0  0
    4.2403   -1.0364    1.7775 C   0  0  0  0  0  0  0  0  0  0  0  0
    4.7937    0.0378    2.3438 N   0  0  0  0  0  0  0  0  0  0  0  0
    5.6064    0.5187    1.3869 N   0  0  0  0  0  0  0  0  0  0  0  0
    6.4074    1.6874    1.6565 C   0  0  0  0  0  0  0  0  0  0  0  0
    5.5566   -0.1956    0.2253 C   0  0  0  0  0  0  0  0  0  0  0  0
   -0.0212   -0.0223   -0.3294 C   0  0  0  0  0  0  0  0  0  0  0  0
    0.2459    0.1690    1.0382 C   0  0  0  0  0  0  0  0  0  0  0  0
   -0.6957    0.7609    1.8877 C   0  0  0  0  0  0  0  0  0  0  0  0
   -1.9315    1.1582    1.3880 C   0  0  0  0  0  0  0  0  0  0  0  0
   -2.2239    0.9375    0.0423 C   0  0  0  0  0  0  0  0  0  0  0  0
   -3.5188    1.3590   -0.5245 C   0  0  0  0  0  0  0  0  0  0  0  0
   -3.5094    2.2490   -1.3700 O   0  0  0  0  0  0  0  0  0  0  0  0
   -4.6591    0.7077   -0.1029 N   0  0  0  0  0  0  0  0  0  0  0  0
   -4.7500   -0.4490    0.7789 C   0  0  0  0  0  0  0  0  0  0  0  0
   -6.2452   -0.6602    0.9749 C   0  0  0  0  0  0  0  0  0  0  0  0
   -6.8390   -0.1422   -0.3284 C   0  0  0  0  0  0  0  0  0  0  0  0
   -5.9592    1.0568   -0.6484 C   0  0  0  0  0  0  0  0  0  0  0  0
   -1.2766    0.3673   -0.8167 C   0  0  0  0  0  0  0  0  0  0  0  0
  1  2  1  0
  2  3  2  0
  2  4  1  0
  4  5  1  0
  5  6  2  0
  5  7  1  0
  7  8  1  0
  8  9  1  0
  9 10  1  0
 10 11  2  0
 11 12  1  0
 12 13  1  0
 12 14  1  0
  4 15  1  0
 15 16  2  0
 16 17  1  0
 17 18  2  0
 18 19  1  0
 19 20  1  0
 20 21  2  0
 20 22  1  0
 22 23  1  0
 23 24  1  0
 24 25  1  0
 25 26  1  0
 19 27  2  0
 14  9  2  0
 27 15  1  0
 26 22  1  0
M  END
