mol_74f6fc6704f6
     RDKit          3D

 22 25  0  0  0  0  0  0  0  0999 V2000
    1.8759   -2.6782    1.6985 O   0  0  0  0  0  0  0  0  0  0  0  0
    2.6821   -2.6344    0.7855 C   0  0  0  0  0  0  0  0  0  0  0  0
    3.6362   -3.5819    0.6774 O   0  0  0  0  0  0  0  0  0  0  0  0
    2.7285   -1.6540   -0.3460 C   0  0  0  0  0  0  0  0  0  0  0  0
    1.9045   -0.4058   -0.1060 C   0  0  0  0  0  0  0  0  0  0  0  0
    2.5635    0.6726    0.2054 N   0  0  0  0  0  0  0  0  0  0  0  0
    1.8306    1.8160    0.4145 C   0  0  0  0  0  0  0  0  0  0  0  0
    2.5250    2.9231    0.7472 C   0  0  0  0  0  0  0  0  0  0  0  0
    1.8668    4.1833    0.9881 C   0  0  0  0  0  0  0  0  0  0  0  0
    0.5332    4.2691    0.8845 C   0  0  0  0  0  0  0  0  0  0  0  0
   -0.3409    3.0945    0.5220 C   0  0  0  0  0  0  0  0  0  0  0  0
    0.4482    1.8842    0.2987 N   0  0  0  0  0  0  0  0  0  0  0  0
   -0.2770    0.7308   -0.0379 C   0  0  0  0  0  0  0  0  0  0  0  0
   -1.6298    0.7917   -0.1564 N   0  0  0  0  0  0  0  0  0  0  0  0
   -2.3146   -0.3198   -0.4742 C   0  0  0  0  0  0  0  0  0  0  0  0
   -3.6968   -0.2589   -0.5908 C   0  0  0  0  0  0  0  0  0  0  0  0
   -4.4578   -1.3851   -0.9177 C   0  0  0  0  0  0  0  0  0  0  0  0
   -3.8290   -2.6055   -1.1343 C   0  0  0  0  0  0  0  0  0  0  0  0
   -2.4430   -2.6944   -1.0242 C   0  0  0  0  0  0  0  0  0  0  0  0
   -1.6816   -1.5581   -0.6965 C   0  0  0  0  0  0  0  0  0  0  0  0
   -0.2882   -1.6145   -0.5800 C   0  0  0  0  0  0  0  0  0  0  0  0
    0.4208   -0.4601   -0.2481 C   0  0  0  0  0  0  0  0  0  0  0  0
  1  2  2  0
  2  3  1  0
  2  4  1  0
  4  5  1  0
  5  6  2  0
  6  7  1  0
  7  8  2  0
  8  9  1  0
  9 10  2  0
 10 11  1  0
 11 12  1  0
 12 13  1  0
 13 14  2  0
 14 15  1  0
 15 16  2  0
 16 17  1  0
 17 18  2  0
 18 19  1  0
 19 20  2  0
 20 21  1  0
 21 22  2  0
 22  5  1  0
 12  7  1  0
 22 13  1  0
 20 15  1  0
M  END
