mol_78149361d619
     RDKit          3D

 29 34  0  0  0  0  0  0  0  0999 V2000
    3.9822    1.2796    2.0828 O   0  0  0  0  0  0  0  0  0  0  0  0
    4.1418    0.9047    0.9252 C   0  0  0  0  0  0  0  0  0  0  0  0
    4.7412    1.8155   -0.1267 C   0  0  0  0  0  0  0  0  0  0  0  0
    5.8155    1.0956   -0.9322 C   0  0  0  0  0  0  0  0  0  0  0  0
    5.3962   -0.3035   -1.3897 C   0  0  0  0  0  0  0  0  0  0  0  0
    3.9797   -0.6630   -0.9588 C   0  0  0  0  0  0  0  0  0  0  0  0
    3.7725   -0.3467    0.4455 N   0  0  0  0  0  0  0  0  0  0  0  0
    3.0889   -1.3026    1.3224 C   0  0  0  0  0  0  0  0  0  0  0  0
    1.5399   -1.3115    1.2309 C   0  0  2  0  0  0  0  0  0  0  0  0
    1.0435   -1.8375   -0.1291 C   0  0  0  0  0  0  0  0  0  0  0  0
   -0.4507   -2.1948   -0.1529 C   0  0  0  0  0  0  0  0  0  0  0  0
   -1.3478   -1.2147    0.6216 C   0  0  1  0  0  0  0  0  0  0  0  0
   -0.9334    0.2015    0.2983 C   0  0  0  0  0  0  0  0  0  0  0  0
    0.2524    0.7014    0.8594 C   0  0  0  0  0  0  0  0  0  0  0  0
    0.6315    2.0247    0.6551 C   0  0  0  0  0  0  0  0  0  0  0  0
   -0.1285    2.8418   -0.1755 C   0  0  0  0  0  0  0  0  0  0  0  0
   -1.2760    2.3403   -0.7919 C   0  0  0  0  0  0  0  0  0  0  0  0
   -1.6893    1.0211   -0.5626 C   0  0  0  0  0  0  0  0  0  0  0  0
   -2.8969    0.5160   -1.2254 C   0  0  0  0  0  0  0  0  0  0  0  0
   -3.5469    1.3729   -2.0261 C   0  0  0  0  0  0  0  0  0  0  0  0
   -3.1198    2.7843   -2.2621 C   0  0  0  0  0  0  0  0  0  0  0  0
   -1.9309    3.2233   -1.6022 O   0  0  0  0  0  0  0  0  0  0  0  0
   -3.3132   -0.9162   -0.9775 C   0  0  2  0  0  0  0  0  0  0  0  0
   -4.7242   -1.1186   -1.1622 O   0  0  0  0  0  0  0  0  0  0  0  0
   -5.5447   -0.5817   -0.1246 C   0  0  0  0  0  0  0  0  0  0  0  0
   -5.1870   -1.1687    1.2293 C   0  0  0  0  0  0  0  0  0  0  0  0
   -3.7127   -0.9404    1.5297 C   0  0  0  0  0  0  0  0  0  0  0  0
   -2.8481   -1.4798    0.3760 C   0  0  2  0  0  0  0  0  0  0  0  0
    1.0525   -0.0330    1.6843 O   0  0  0  0  0  0  0  0  0  0  0  0
  1  2  2  0
  2  3  1  0
  3  4  1  0
  4  5  1  0
  5  6  1  0
  6  7  1  0
  7  8  1  0
  9  8  1  6
  9 10  1  0
 10 11  1  0
 12 11  1  6
 12 13  1  0
 13 14  2  0
 14 15  1  0
 15 16  2  0
 16 17  1  0
 17 18  2  0
 18 19  1  0
 19 20  2  0
 20 21  1  0
 21 22  1  0
 19 23  1  0
 23 24  1  1
 24 25  1  0
 25 26  1  0
 26 27  1  0
 28 27  1  1
 14 29  1  0
  7  2  1  0
 29  9  1  0
 28 12  1  0
 18 13  1  0
 28 23  1  0
 22 17  1  0
M  END
