mol_9999f5203172
     RDKit          3D

 25 28  0  0  0  0  0  0  0  0999 V2000
   -1.0171    4.1020    0.8858 C   0  0  0  0  0  0  0  0  0  0  0  0
   -0.9380    3.3751   -0.4497 C   0  0  0  0  0  0  0  0  0  0  0  0
   -0.4417    2.0023   -0.3049 N   0  0  0  0  0  0  0  0  0  0  0  0
    0.9331    1.8172   -0.4375 C   0  0  0  0  0  0  0  0  0  0  0  0
    1.6808    2.7749   -0.6559 O   0  0  0  0  0  0  0  0  0  0  0  0
    1.4184    0.5207   -0.3119 N   0  0  0  0  0  0  0  0  0  0  0  0
    2.8773    0.3201   -0.4569 C   0  0  0  0  0  0  0  0  0  0  0  0
    3.5335   -0.3269    0.7840 C   0  0  0  0  0  0  0  0  0  0  0  0
    4.3012   -1.6063    0.4630 C   0  0  0  0  0  0  0  0  0  0  0  0
    5.2976   -1.4094   -0.6759 C   0  0  0  0  0  0  0  0  0  0  0  0
    4.7303   -0.6462   -1.8744 C   0  0  0  0  0  0  0  0  0  0  0  0
    3.2295   -0.3936   -1.7749 C   0  0  0  0  0  0  0  0  0  0  0  0
    0.6158   -0.5961   -0.1018 C   0  0  0  0  0  0  0  0  0  0  0  0
    1.0598   -1.7393   -0.0280 O   0  0  0  0  0  0  0  0  0  0  0  0
   -0.8337   -0.3741    0.0543 C   0  0  0  0  0  0  0  0  0  0  0  0
   -1.7171   -1.4308    0.2941 C   0  0  0  0  0  0  0  0  0  0  0  0
   -3.0813   -1.1879    0.5064 C   0  0  0  0  0  0  0  0  0  0  0  0
   -3.6002    0.0940    0.4718 C   0  0  0  0  0  0  0  0  0  0  0  0
   -4.9375    0.2036    0.7169 O   0  0  0  0  0  0  0  0  0  0  0  0
   -5.5033    1.5076    0.6973 C   0  0  0  0  0  0  0  0  0  0  0  0
   -2.7191    1.1449    0.1955 C   0  0  0  0  0  0  0  0  0  0  0  0
   -1.3337    0.9288   -0.0196 C   0  0  0  0  0  0  0  0  0  0  0  0
   -3.8153   -2.4564    0.8248 C   0  0  0  0  0  0  0  0  0  0  0  0
   -2.8366   -3.5083    0.3022 C   0  0  0  0  0  0  0  0  0  0  0  0
   -1.4346   -2.9007    0.4307 C   0  0  0  0  0  0  0  0  0  0  0  0
  1  2  1  0
  2  3  1  0
  3  4  1  0
  4  5  2  0
  4  6  1  0
  6  7  1  0
  7  8  1  0
  8  9  1  0
  9 10  1  0
 10 11  1  0
 11 12  1  0
  6 13  1  0
 13 14  2  0
 13 15  1  0
 15 16  1  0
 16 17  2  0
 17 18  1  0
 18 19  1  0
 19 20  1  0
 18 21  2  0
 21 22  1  0
 17 23  1  0
 23 24  1  0
 24 25  1  0
 22  3  1  0
 12  7  1  0
 22 15  2  0
 25 16  1  0
M  END
