mol_6e98caa5b642
     RDKit          3D

 27 31  0  0  0  0  0  0  0  0999 V2000
    1.9471    3.6366   -3.4724 O   0  0  0  0  0  0  0  0  0  0  0  0
    0.9359    3.1235   -3.0317 C   0  0  0  0  0  0  0  0  0  0  0  0
   -0.2814    3.4845   -3.4731 O   0  0  0  0  0  0  0  0  0  0  0  0
    0.8810    2.0699   -1.9887 C   0  0  0  0  0  0  0  0  0  0  0  0
    2.1071    1.5872   -1.4703 C   0  0  0  0  0  0  0  0  0  0  0  0
    2.1833    0.5961   -0.4609 C   0  0  0  0  0  0  0  0  0  0  0  0
    0.9473    0.0897   -0.0612 C   0  0  0  0  0  0  0  0  0  0  0  0
   -0.2754    0.5713   -0.5684 C   0  0  0  0  0  0  0  0  0  0  0  0
   -0.3336    1.5650   -1.5221 C   0  0  0  0  0  0  0  0  0  0  0  0
   -1.3238   -0.1365    0.0492 N   0  0  0  0  0  0  0  0  0  0  0  0
   -2.7468    0.0719   -0.1752 C   0  0  0  0  0  0  0  0  0  0  0  0
   -3.4533   -1.1962   -0.7005 C   0  0  0  0  0  0  0  0  0  0  0  0
   -4.4427   -1.7926    0.2959 C   0  0  0  0  0  0  0  0  0  0  0  0
   -5.4897   -0.7776    0.7518 C   0  0  0  0  0  0  0  0  0  0  0  0
   -4.9421    0.6392    0.9287 C   0  0  0  0  0  0  0  0  0  0  0  0
   -3.4256    0.6628    1.0722 C   0  0  0  0  0  0  0  0  0  0  0  0
   -0.7650   -1.0806    0.9363 C   0  0  0  0  0  0  0  0  0  0  0  0
   -1.3647   -1.8772    1.6405 O   0  0  0  0  0  0  0  0  0  0  0  0
    0.6318   -0.9388    0.8401 N   0  0  0  0  0  0  0  0  0  0  0  0
    1.5770   -1.7748    1.5275 C   0  0  0  0  0  0  0  0  0  0  0  0
    2.7403   -2.2005    0.6381 C   0  0  0  0  0  0  0  0  0  0  0  0
    3.7893   -1.1142    0.5705 C   0  0  0  0  0  0  0  0  0  0  0  0
    5.0843   -1.4347    1.0336 C   0  0  0  0  0  0  0  0  0  0  0  0
    6.0950   -0.4803    1.0679 C   0  0  0  0  0  0  0  0  0  0  0  0
    5.8241    0.8115    0.6494 C   0  0  0  0  0  0  0  0  0  0  0  0
    4.5493    1.1361    0.1775 C   0  0  0  0  0  0  0  0  0  0  0  0
    3.5025    0.1867    0.0968 C   0  0  0  0  0  0  0  0  0  0  0  0
  1  2  2  0
  2  3  1  0
  2  4  1  0
  4  5  1  0
  5  6  2  0
  6  7  1  0
  7  8  2  0
  8  9  1  0
  8 10  1  0
 10 11  1  0
 11 12  1  0
 12 13  1  0
 13 14  1  0
 14 15  1  0
 15 16  1  0
 10 17  1  0
 17 18  2  0
 17 19  1  0
 19 20  1  0
 20 21  1  0
 21 22  1  0
 22 23  2  0
 23 24  1  0
 24 25  2  0
 25 26  1  0
 26 27  2  0
  9  4  2  0
 16 11  1  0
 27 22  1  0
 27  6  1  0
 19  7  1  0
M  END
