mol_81c072567754
     RDKit          3D

 26 29  0  0  0  0  0  0  0  0999 V2000
   -2.5704    2.6552   -2.0226 C   0  0  0  0  0  0  0  0  0  0  0  0
   -2.7180    1.2576   -2.6066 C   0  0  0  0  0  0  0  0  0  0  0  0
   -3.4814    0.3295   -1.6759 C   0  0  0  0  0  0  0  0  0  0  0  0
   -4.8797    0.2152   -1.8291 C   0  0  0  0  0  0  0  0  0  0  0  0
   -5.4688    0.9668   -2.8133 O   0  0  0  0  0  0  0  0  0  0  0  0
   -5.6432   -0.6232   -1.0113 C   0  0  0  0  0  0  0  0  0  0  0  0
   -7.1304   -0.7686   -1.1602 C   0  0  0  0  0  0  0  0  0  0  0  0
   -4.9850   -1.3502   -0.0131 C   0  0  0  0  0  0  0  0  0  0  0  0
   -3.6005   -1.2505    0.1851 C   0  0  0  0  0  0  0  0  0  0  0  0
   -3.0039   -2.0004    1.2149 C   0  0  0  0  0  0  0  0  0  0  0  0
   -1.6249   -1.9109    1.4391 C   0  0  0  0  0  0  0  0  0  0  0  0
   -0.8607   -2.5487    2.3747 N   0  0  0  0  0  0  0  0  0  0  0  0
    0.3618   -2.1243    2.1552 C   0  0  0  0  0  0  0  0  0  0  0  0
    0.4457   -1.2033    1.1282 N   0  0  0  0  0  0  0  0  0  0  0  0
    1.5922   -0.5366    0.6449 C   0  0  0  0  0  0  0  0  0  0  0  0
    1.5283    0.1541   -0.3622 O   0  0  0  0  0  0  0  0  0  0  0  0
    2.7250   -0.7307    1.4110 N   0  0  0  0  0  0  0  0  0  0  0  0
    3.9871   -0.1015    1.0430 C   0  0  0  0  0  0  0  0  0  0  0  0
    4.0422    1.3467    1.5595 C   0  0  0  0  0  0  0  0  0  0  0  0
    5.4648    1.8548    1.8070 C   0  0  0  0  0  0  0  0  0  0  0  0
    6.4781    1.1779    0.8949 C   0  0  0  0  0  0  0  0  0  0  0  0
    6.5099   -0.3369    1.1054 C   0  0  0  0  0  0  0  0  0  0  0  0
    5.1704   -0.9202    1.5606 C   0  0  0  0  0  0  0  0  0  0  0  0
   -0.8553   -1.0778    0.6405 C   0  0  0  0  0  0  0  0  0  0  0  0
   -1.4282   -0.3184   -0.3956 C   0  0  0  0  0  0  0  0  0  0  0  0
   -2.8234   -0.4014   -0.6424 C   0  0  0  0  0  0  0  0  0  0  0  0
  1  2  1  0
  2  3  1  0
  3  4  2  0
  4  5  1  0
  4  6  1  0
  6  7  1  0
  6  8  2  0
  8  9  1  0
  9 10  2  0
 10 11  1  0
 11 12  1  0
 12 13  2  0
 13 14  1  0
 14 15  1  0
 15 16  2  0
 15 17  1  0
 17 18  1  0
 18 19  1  0
 19 20  1  0
 20 21  1  0
 21 22  1  0
 22 23  1  0
 14 24  1  0
 24 25  1  0
 25 26  2  0
 26  3  1  0
 26  9  1  0
 24 11  2  0
 23 18  1  0
M  END
