mol_faced8dede58
     RDKit          3D

 28 31  0  0  0  0  0  0  0  0999 V2000
   -4.7830    3.9420   -1.0327 C   0  0  0  0  0  0  0  0  0  0  0  0
   -4.2704    2.5852   -0.6767 C   0  0  0  0  0  0  0  0  0  0  0  0
   -4.9823    1.4561   -0.7718 C   0  0  0  0  0  0  0  0  0  0  0  0
   -4.4542    0.1692   -0.3250 C   0  0  0  0  0  0  0  0  0  0  0  0
   -5.3880   -0.7487    0.0031 C   0  0  0  0  0  0  0  0  0  0  0  0
   -5.3097   -2.1483    0.5314 C   0  0  0  0  0  0  0  0  0  0  0  0
   -3.9403   -2.7391    0.8084 C   0  0  0  0  0  0  0  0  0  0  0  0
   -3.0062   -2.5574   -0.3744 C   0  0  0  0  0  0  0  0  0  0  0  0
   -2.2991   -1.2274   -0.3051 C   0  0  0  0  0  0  0  0  0  0  0  0
   -0.8944   -1.2576   -0.2725 C   0  0  0  0  0  0  0  0  0  0  0  0
   -0.1157   -0.0921   -0.2519 C   0  0  0  0  0  0  0  0  0  0  0  0
    1.3888   -0.2721   -0.1582 C   0  0  0  0  0  0  0  0  0  0  0  0
    1.8656   -0.3077    1.2977 C   0  0  0  0  0  0  0  0  0  0  0  0
    3.3145   -0.5030    1.3951 N   0  0  0  0  0  0  0  0  0  0  0  0
    4.1684    0.6801    1.3130 C   0  0  0  0  0  0  0  0  0  0  0  0
    4.9806    0.7402    0.0219 C   0  0  0  0  0  0  0  0  0  0  0  0
    6.2363   -0.1284    0.0533 C   0  0  0  0  0  0  0  0  0  0  0  0
    5.9665   -1.6211    0.2223 C   0  0  0  0  0  0  0  0  0  0  0  0
    5.3031   -1.9703    1.5488 C   0  0  0  0  0  0  0  0  0  0  0  0
    3.8001   -1.7977    1.4878 C   0  0  0  0  0  0  0  0  0  0  0  0
    3.0620   -2.7837    1.5059 O   0  0  0  0  0  0  0  0  0  0  0  0
   -0.7552    1.1678   -0.2693 C   0  0  0  0  0  0  0  0  0  0  0  0
    0.0856    2.4246   -0.3907 C   0  0  0  0  0  0  0  0  0  0  0  0
    0.8426    2.4018   -1.6033 O   0  0  0  0  0  0  0  0  0  0  0  0
   -2.1789    1.1986   -0.2204 C   0  0  0  0  0  0  0  0  0  0  0  0
   -2.9664    0.0096   -0.2626 C   0  0  0  0  0  0  0  0  0  0  0  0
   -2.9077    2.4990   -0.0958 C   0  0  0  0  0  0  0  0  0  0  0  0
   -2.4260    3.4680    0.4788 O   0  0  0  0  0  0  0  0  0  0  0  0
  1  2  1  0
  2  3  2  0
  3  4  1  0
  4  5  2  0
  5  6  1  0
  6  7  1  0
  7  8  1  0
  8  9  1  0
  9 10  1  0
 10 11  2  0
 11 12  1  0
 12 13  1  0
 13 14  1  0
 14 15  1  0
 15 16  1  0
 16 17  1  0
 17 18  1  0
 18 19  1  0
 19 20  1  0
 20 21  2  0
 11 22  1  0
 22 23  1  0
 23 24  1  0
 22 25  2  0
 25 26  1  0
 25 27  1  0
 27 28  2  0
 27  2  1  0
 26  4  1  0
 26  9  2  0
 20 14  1  0
M  END
