mol_319c90ddd2b4
     RDKit          3D

 24 26  0  0  0  0  0  0  0  0999 V2000
   -5.9460   -0.7206    0.8636 C   0  0  0  0  0  0  0  0  0  0  0  0
   -4.5826   -0.0527    1.1149 C   0  0  0  0  0  0  0  0  0  0  0  0
   -4.1924   -0.3349    2.5748 C   0  0  0  0  0  0  0  0  0  0  0  0
   -3.5893   -0.5244    0.1226 N   0  0  0  0  0  0  0  0  0  0  0  0
   -3.9357   -0.1293   -1.2571 C   0  0  0  0  0  0  0  0  0  0  0  0
   -2.8063    0.4687   -2.0882 C   0  0  0  0  0  0  0  0  0  0  0  0
   -1.5571   -0.3559   -1.9453 C   0  0  0  0  0  0  0  0  0  0  0  0
   -0.8212   -0.5608   -2.9123 O   0  0  0  0  0  0  0  0  0  0  0  0
   -1.2407   -0.8813   -0.5648 C   0  0  1  0  0  0  0  0  0  0  0  0
    0.2452   -0.7306   -0.1865 C   0  0  0  0  0  0  0  0  0  0  0  0
    0.6579    0.6148    0.2638 N   0  0  0  0  0  0  0  0  0  0  0  0
    0.8625    1.5802   -0.8326 C   0  0  0  0  0  0  0  0  0  0  0  0
    2.0115    1.2350   -1.7937 C   0  0  0  0  0  0  0  0  0  0  0  0
    3.2405    0.7285   -1.0785 C   0  0  0  0  0  0  0  0  0  0  0  0
    4.4410    0.5691   -1.7837 C   0  0  0  0  0  0  0  0  0  0  0  0
    5.5757    0.0672   -1.1436 C   0  0  0  0  0  0  0  0  0  0  0  0
    5.5184   -0.2838    0.2088 C   0  0  0  0  0  0  0  0  0  0  0  0
    6.6972   -0.8155    0.9345 C   0  0  0  0  0  0  0  0  0  0  0  0
    6.7252   -1.1394    2.1076 O   0  0  0  0  0  0  0  0  0  0  0  0
    7.7900   -0.9169    0.1572 O   0  0  0  0  0  0  0  0  0  0  0  0
    4.3179   -0.1331    0.9152 C   0  0  0  0  0  0  0  0  0  0  0  0
    3.1693    0.3596    0.2767 C   0  0  0  0  0  0  0  0  0  0  0  0
    1.8961    0.5595    1.0704 C   0  0  0  0  0  0  0  0  0  0  0  0
   -2.1861   -0.2509    0.4669 C   0  0  0  0  0  0  0  0  0  0  0  0
  1  2  1  0
  2  3  1  0
  2  4  1  0
  4  5  1  0
  5  6  1  0
  6  7  1  0
  7  8  2  0
  7  9  1  0
  9 10  1  1
 10 11  1  0
 11 12  1  0
 12 13  1  0
 13 14  1  0
 14 15  1  0
 15 16  2  0
 16 17  1  0
 17 18  1  0
 18 19  2  0
 18 20  1  0
 17 21  2  0
 21 22  1  0
 22 23  1  0
  9 24  1  0
 24  4  1  0
 23 11  1  0
 22 14  2  0
M  END
