mol_d92f880fc458
     RDKit          3D

 26 31  0  0  0  0  0  0  0  0999 V2000
    3.7162   -2.2824    0.7486 C   0  0  0  0  0  0  0  0  0  0  0  0
    3.1837   -0.9257    0.3570 C   0  0  0  0  0  0  0  0  0  0  0  0
    4.0082    0.2253    0.4479 C   0  0  0  0  0  0  0  0  0  0  0  0
    5.4415    0.1790    0.8232 C   0  0  0  0  0  0  0  0  0  0  0  0
    6.0193    0.9714    1.5436 O   0  0  0  0  0  0  0  0  0  0  0  0
    6.1028   -0.8048    0.1886 O   0  0  0  0  0  0  0  0  0  0  0  0
    3.4837    1.5100    0.2330 C   0  0  0  0  0  0  0  0  0  0  0  0
    2.1595    1.6679   -0.1637 C   0  0  0  0  0  0  0  0  0  0  0  0
    1.3914    0.5097   -0.4088 C   0  0  0  0  0  0  0  0  0  0  0  0
    1.8510   -0.7801   -0.1049 C   0  0  0  0  0  0  0  0  0  0  0  0
    0.8728   -1.9443   -0.0969 C   0  0  0  0  0  0  0  0  0  0  0  0
   -0.4372   -1.8202   -0.9113 C   0  0  1  0  0  0  0  0  0  0  0  0
   -1.5713   -2.7003   -0.2939 C   0  0  0  0  0  0  0  0  0  0  0  0
   -3.0158   -2.2705   -0.6579 C   0  0  0  0  0  0  0  0  0  0  0  0
   -3.3152   -0.7647   -0.4627 C   0  0  1  0  0  0  0  0  0  0  0  0
   -4.2934   -0.4114    0.6676 C   0  0  0  0  0  0  0  0  0  0  0  0
   -4.4426    1.1150    0.8384 C   0  0  0  0  0  0  0  0  0  0  0  0
   -3.1100    1.8735    0.8570 C   0  0  0  0  0  0  0  0  0  0  0  0
   -2.9065    2.8086    1.6277 O   0  0  0  0  0  0  0  0  0  0  0  0
   -2.1224    1.4872   -0.2242 C   0  0  1  0  0  0  0  0  0  0  0  0
   -0.6387    1.7854   -0.0290 C   0  0  2  0  0  0  0  0  0  0  0  0
   -0.0213    3.1340   -0.3660 C   0  0  0  0  0  0  0  0  0  0  0  0
    1.5379    3.0614   -0.2709 C   0  0  0  0  0  0  0  0  0  0  0  0
    0.0387    0.7557   -0.9661 C   0  0  2  0  0  0  0  0  0  0  0  0
   -0.9294   -0.3977   -1.1173 C   0  0  2  0  0  0  0  0  0  0  0  0
   -2.0309   -0.0357   -0.1523 C   0  0  2  0  0  0  0  0  0  0  0  0
  1  2  1  0
  2  3  2  0
  3  4  1  0
  4  5  2  0
  4  6  1  0
  3  7  1  0
  7  8  2  0
  8  9  1  0
  9 10  2  0
 10 11  1  0
 12 11  1  1
 12 13  1  0
 13 14  1  0
 15 14  1  1
 15 16  1  0
 16 17  1  0
 17 18  1  0
 18 19  2  0
 20 18  1  1
 20 21  1  0
 21 22  1  6
 22 23  1  0
 21 24  1  0
 24 25  1  0
 25 26  1  0
 10  2  1  0
 25 12  1  1
 23  8  1  0
 24  9  1  1
 26 15  1  6
 26 20  1  0
M  END
