mol_d5fc2bb0f207
     RDKit          3D

 29 33  0  0  0  0  0  0  0  0999 V2000
    3.4636   -3.7400   -0.3990 C   0  0  0  0  0  0  0  0  0  0  0  0
    2.3584   -2.7349   -0.6453 C   0  0  0  0  0  0  0  0  0  0  0  0
    1.4531   -3.0499   -1.4219 O   0  0  0  0  0  0  0  0  0  0  0  0
    2.4723   -1.4819   -0.0032 N   0  0  0  0  0  0  0  0  0  0  0  0
    3.7308   -1.0043    0.3729 C   0  0  0  0  0  0  0  0  0  0  0  0
    4.0037    0.3011    0.5126 C   0  0  0  0  0  0  0  0  0  0  0  0
    5.3512    0.8194    0.9054 C   0  0  0  0  0  0  0  0  0  0  0  0
    5.5975    2.2155    0.3628 C   0  0  0  0  0  0  0  0  0  0  0  0
    7.0176    2.7203    0.3901 C   0  0  0  0  0  0  0  0  0  0  0  0
    4.6677    3.0119   -0.0683 N   0  0  0  0  0  0  0  0  0  0  0  0
    3.3781    2.5384   -0.0831 C   0  0  0  0  0  0  0  0  0  0  0  0
    2.9834    1.2742    0.1694 C   0  0  0  0  0  0  0  0  0  0  0  0
    1.5707    0.8128    0.0769 C   0  0  0  0  0  0  0  0  0  0  0  0
    0.5010    1.7045    0.0261 C   0  0  0  0  0  0  0  0  0  0  0  0
   -0.8047    1.2333    0.0102 C   0  0  0  0  0  0  0  0  0  0  0  0
   -1.7694    2.2107   -0.0511 O   0  0  0  0  0  0  0  0  0  0  0  0
   -1.1315   -0.1364    0.1274 C   0  0  0  0  0  0  0  0  0  0  0  0
   -2.4890   -0.6066    0.1925 C   0  0  0  0  0  0  0  0  0  0  0  0
   -3.5723    0.2760   -0.0332 N   0  0  0  0  0  0  0  0  0  0  0  0
   -4.5685    0.4102    1.0453 C   0  0  0  0  0  0  0  0  0  0  0  0
   -5.9547   -0.0101    0.5667 C   0  0  0  0  0  0  0  0  0  0  0  0
   -6.4053    0.7914   -0.6564 C   0  0  0  0  0  0  0  0  0  0  0  0
   -5.2446    1.2047   -1.5641 C   0  0  0  0  0  0  0  0  0  0  0  0
   -4.0557    0.2591   -1.4280 C   0  0  0  0  0  0  0  0  0  0  0  0
   -2.7528   -1.9562    0.4556 C   0  0  0  0  0  0  0  0  0  0  0  0
   -1.7135   -2.8387    0.6778 C   0  0  0  0  0  0  0  0  0  0  0  0
   -0.3974   -2.3902    0.5802 C   0  0  0  0  0  0  0  0  0  0  0  0
   -0.0492   -1.0575    0.2356 C   0  0  0  0  0  0  0  0  0  0  0  0
    1.3104   -0.5859    0.0841 C   0  0  0  0  0  0  0  0  0  0  0  0
  1  2  1  0
  2  3  2  0
  2  4  1  0
  4  5  1  0
  5  6  2  0
  6  7  1  0
  7  8  1  0
  8  9  1  0
  8 10  2  0
 10 11  1  0
 11 12  2  0
 12 13  1  0
 13 14  1  0
 14 15  2  0
 15 16  1  0
 15 17  1  0
 17 18  2  0
 18 19  1  0
 19 20  1  0
 20 21  1  0
 21 22  1  0
 22 23  1  0
 23 24  1  0
 18 25  1  0
 25 26  2  0
 26 27  1  0
 27 28  2  0
 28 29  1  0
 29  4  1  0
 12  6  1  0
 29 13  2  0
 28 17  1  0
 24 19  1  0
M  END
