mol_ca4d8f971034
     RDKit          3D

 27 30  0  0  0  0  0  0  0  0999 V2000
    6.2997    1.2326    2.0961 O   0  0  0  0  0  0  0  0  0  0  0  0
    5.5901    1.1315    1.1081 C   0  0  0  0  0  0  0  0  0  0  0  0
    5.1736    2.2651    0.1795 C   0  0  0  0  0  0  0  0  0  0  0  0
    4.2817    1.5302   -0.7860 C   0  0  0  0  0  0  0  0  0  0  0  0
    4.2277    0.2275   -0.4894 C   0  0  0  0  0  0  0  0  0  0  0  0
    3.4700   -0.8834   -1.1592 C   0  0  0  0  0  0  0  0  0  0  0  0
    3.1288   -2.0108   -0.2611 N   0  0  0  0  0  0  0  0  0  0  0  0
    2.0480   -1.6736    0.6790 C   0  0  0  0  0  0  0  0  0  0  0  0
    0.7108   -1.4770   -0.0051 C   0  0  0  0  0  0  0  0  0  0  0  0
    0.0926   -2.5400   -0.6841 C   0  0  0  0  0  0  0  0  0  0  0  0
   -1.1193   -2.3537   -1.3547 C   0  0  0  0  0  0  0  0  0  0  0  0
   -1.7360   -1.1038   -1.3449 C   0  0  0  0  0  0  0  0  0  0  0  0
   -1.1436   -0.0518   -0.6414 C   0  0  0  0  0  0  0  0  0  0  0  0
   -1.7535    1.2842   -0.6728 C   0  0  0  0  0  0  0  0  0  0  0  0
   -1.1781    2.1168   -1.3724 O   0  0  0  0  0  0  0  0  0  0  0  0
   -2.9280    1.5441    0.0297 N   0  0  0  0  0  0  0  0  0  0  0  0
   -3.6921    2.7195   -0.3873 C   0  0  0  0  0  0  0  0  0  0  0  0
   -4.9559    2.2581   -1.1173 C   0  0  0  0  0  0  0  0  0  0  0  0
   -5.7774    1.2830   -0.2668 C   0  0  0  0  0  0  0  0  0  0  0  0
   -4.9239    0.1386    0.2993 C   0  0  0  0  0  0  0  0  0  0  0  0
   -3.6691    0.6952    0.9922 C   0  0  1  0  0  0  0  0  0  0  0  0
   -2.8997   -0.3725    1.7855 C   0  0  0  0  0  0  0  0  0  0  0  0
   -3.6632   -0.7733    2.9257 O   0  0  0  0  0  0  0  0  0  0  0  0
    0.0847   -0.2229    0.0048 C   0  0  0  0  0  0  0  0  0  0  0  0
    4.3579   -2.4267    0.4554 C   0  0  0  0  0  0  0  0  0  0  0  0
    5.0389   -1.3132    1.2756 C   0  0  0  0  0  0  0  0  0  0  0  0
    4.9921   -0.0212    0.6212 N   0  0  0  0  0  0  0  0  0  0  0  0
  1  2  2  0
  2  3  1  0
  3  4  1  0
  4  5  2  0
  5  6  1  0
  6  7  1  0
  7  8  1  0
  8  9  1  0
  9 10  1  0
 10 11  2  0
 11 12  1  0
 12 13  2  0
 13 14  1  0
 14 15  2  0
 14 16  1  0
 16 17  1  0
 17 18  1  0
 18 19  1  0
 19 20  1  0
 20 21  1  0
 21 22  1  6
 22 23  1  0
 13 24  1  0
  7 25  1  0
 25 26  1  0
 26 27  1  0
 27  2  1  0
 27  5  1  0
 24  9  2  0
 21 16  1  0
M  END
