mol_4d06d1f1e3e3
     RDKit          3D

 28 33  0  0  0  0  0  0  0  0999 V2000
   -3.6919   -1.6831   -4.1661 C   0  0  0  0  0  0  0  0  0  0  0  0
   -2.8275   -1.1437   -3.0622 C   0  0  0  0  0  0  0  0  0  0  0  0
   -3.2212   -0.1106   -2.2937 C   0  0  0  0  0  0  0  0  0  0  0  0
   -2.3847    0.4150   -1.2165 C   0  0  0  0  0  0  0  0  0  0  0  0
   -2.7319    1.4637   -0.4170 C   0  0  0  0  0  0  0  0  0  0  0  0
   -4.0558    2.1879   -0.6450 C   0  0  0  0  0  0  0  0  0  0  0  0
   -4.1974    3.5329    0.0534 C   0  0  0  0  0  0  0  0  0  0  0  0
   -3.7304    3.4101    1.4863 C   0  0  0  0  0  0  0  0  0  0  0  0
   -2.2525    3.0656    1.5040 C   0  0  0  0  0  0  0  0  0  0  0  0
   -1.9096    1.9026    0.6568 N   0  0  0  0  0  0  0  0  0  0  0  0
   -0.6573    1.3145    0.9150 C   0  0  0  0  0  0  0  0  0  0  0  0
    0.1232    1.7354    1.8615 N   0  0  0  0  0  0  0  0  0  0  0  0
    1.3420    1.1612    2.1194 C   0  0  0  0  0  0  0  0  0  0  0  0
    2.0324    1.6078    3.0336 O   0  0  0  0  0  0  0  0  0  0  0  0
    1.7763    0.0868    1.3456 N   0  0  0  0  0  0  0  0  0  0  0  0
    3.0868   -0.5250    1.6200 C   0  0  0  0  0  0  0  0  0  0  0  0
    4.0975   -0.3572    0.4733 C   0  0  0  0  0  0  0  0  0  0  0  0
    5.4992   -0.8182    0.8830 C   0  0  0  0  0  0  0  0  0  0  0  0
    5.5018   -1.9964    1.8595 C   0  0  0  0  0  0  0  0  0  0  0  0
    4.2216   -2.8177    1.7816 C   0  0  0  0  0  0  0  0  0  0  0  0
    2.9906   -1.9789    2.1308 C   0  0  0  0  0  0  0  0  0  0  0  0
    0.9665   -0.4031    0.3008 C   0  0  0  0  0  0  0  0  0  0  0  0
    1.3834   -1.4455   -0.4561 N   0  0  0  0  0  0  0  0  0  0  0  0
    0.5725   -1.8728   -1.4515 C   0  0  0  0  0  0  0  0  0  0  0  0
   -0.6618   -1.3092   -1.7450 C   0  0  0  0  0  0  0  0  0  0  0  0
   -1.0822   -0.2378   -0.9542 C   0  0  0  0  0  0  0  0  0  0  0  0
   -0.2504    0.1987    0.0691 C   0  0  0  0  0  0  0  0  0  0  0  0
   -1.4992   -1.8411   -2.8760 C   0  0  0  0  0  0  0  0  0  0  0  0
  1  2  1  0
  2  3  2  0
  3  4  1  0
  4  5  2  0
  5  6  1  0
  6  7  1  0
  7  8  1  0
  8  9  1  0
  9 10  1  0
 10 11  1  0
 11 12  2  0
 12 13  1  0
 13 14  2  0
 13 15  1  0
 15 16  1  0
 16 17  1  0
 17 18  1  0
 18 19  1  0
 19 20  1  0
 20 21  1  0
 15 22  1  0
 22 23  1  0
 23 24  2  0
 24 25  1  0
 25 26  2  0
 26 27  1  0
 25 28  1  0
 28  2  1  0
 26  4  1  0
 10  5  1  0
 27 11  1  0
 21 16  1  0
 27 22  2  0
M  END
