mol_c63c603addb8
     RDKit          3D

 21 22  0  0  0  0  0  0  0  0999 V2000
   -7.3341   -0.2488   -1.1194 C   0  0  0  0  0  0  0  0  0  0  0  0
   -5.8365    0.0108   -1.0791 C   0  0  0  0  0  0  0  0  0  0  0  0
   -5.0878   -1.1387   -0.4023 C   0  0  0  0  0  0  0  0  0  0  0  0
   -3.6112   -0.8769   -0.3456 C   0  0  0  0  0  0  0  0  0  0  0  0
   -2.9010   -0.2090    0.6285 C   0  0  0  0  0  0  0  0  0  0  0  0
   -1.5042   -0.1579    0.3411 C   0  0  0  0  0  0  0  0  0  0  0  0
   -1.1785   -0.7897   -0.8472 C   0  0  0  0  0  0  0  0  0  0  0  0
    0.1100   -0.9702   -1.5094 C   0  0  0  0  0  0  0  0  0  0  0  0
    0.2717   -1.5977   -2.5551 O   0  0  0  0  0  0  0  0  0  0  0  0
    1.1863   -0.3749   -0.8815 N   0  0  0  0  0  0  0  0  0  0  0  0
    2.5155   -0.4911   -1.4283 C   0  0  0  0  0  0  0  0  0  0  0  0
    3.4969    0.3114   -0.6169 C   0  0  0  0  0  0  0  0  0  0  0  0
    3.7636    1.6486   -0.9425 C   0  0  0  0  0  0  0  0  0  0  0  0
    4.6519    2.4027   -0.1740 C   0  0  0  0  0  0  0  0  0  0  0  0
    5.2776    1.8318    0.9352 C   0  0  0  0  0  0  0  0  0  0  0  0
    5.0127    0.5019    1.2810 C   0  0  0  0  0  0  0  0  0  0  0  0
    5.6443   -0.1463    2.4557 C   0  0  0  0  0  0  0  0  0  0  0  0
    5.4417   -1.2851    2.8343 O   0  0  0  0  0  0  0  0  0  0  0  0
    6.4999    0.6635    3.1039 O   0  0  0  0  0  0  0  0  0  0  0  0
    4.1206   -0.2527    0.5065 C   0  0  0  0  0  0  0  0  0  0  0  0
   -2.5852   -1.4387   -1.5916 S   0  0  0  0  0  0  0  0  0  0  0  0
  1  2  1  0
  2  3  1  0
  3  4  1  0
  4  5  2  0
  5  6  1  0
  6  7  2  0
  7  8  1  0
  8  9  2  0
  8 10  1  0
 10 11  1  0
 11 12  1  0
 12 13  1  0
 13 14  2  0
 14 15  1  0
 15 16  2  0
 16 17  1  0
 17 18  2  0
 17 19  1  0
 16 20  1  0
  7 21  1  0
 21  4  1  0
 20 12  2  0
M  END
