mol_b2f5a24c180c
     RDKit          3D

 26 28  0  0  0  0  0  0  0  0999 V2000
   -5.0633    2.2387    2.5216 C   0  0  0  0  0  0  0  0  0  0  0  0
   -5.0305    0.7816    2.0590 C   0  0  1  0  0  0  0  0  0  0  0  0
   -5.6188    0.6150    0.6553 C   0  0  0  0  0  0  0  0  0  0  0  0
   -4.4145    0.8167   -0.2308 C   0  0  0  0  0  0  0  0  0  0  0  0
   -4.4954    1.0736   -1.4274 O   0  0  0  0  0  0  0  0  0  0  0  0
   -3.1155    0.6990    0.5447 C   0  0  2  0  0  0  0  0  0  0  0  0
   -2.0823   -0.2124   -0.0782 C   0  0  0  0  0  0  0  0  0  0  0  0
   -0.7785    0.2767   -0.2754 C   0  0  0  0  0  0  0  0  0  0  0  0
    0.2196   -0.5173   -0.8576 C   0  0  0  0  0  0  0  0  0  0  0  0
    1.6154    0.0234   -1.0492 C   0  0  0  0  0  0  0  0  0  0  0  0
    2.5071   -0.2585    0.1635 C   0  0  0  0  0  0  0  0  0  0  0  0
    3.8610    0.2561   -0.0204 N   0  0  0  0  0  0  0  0  0  0  0  0
    4.1210    1.6709    0.1861 C   0  0  0  0  0  0  0  0  0  0  0  0
    5.4562    1.8943    0.8879 C   0  0  0  0  0  0  0  0  0  0  0  0
    6.5536    0.9403    0.4102 C   0  0  0  0  0  0  0  0  0  0  0  0
    6.1582    0.1526   -0.8317 C   0  0  0  0  0  0  0  0  0  0  0  0
    4.8272   -0.5403   -0.6220 C   0  0  0  0  0  0  0  0  0  0  0  0
    4.6259   -1.6906   -0.9999 O   0  0  0  0  0  0  0  0  0  0  0  0
   -0.0873   -1.8290   -1.2403 C   0  0  0  0  0  0  0  0  0  0  0  0
   -1.3783   -2.3409   -1.0540 C   0  0  0  0  0  0  0  0  0  0  0  0
   -1.7110   -3.7253   -1.4617 C   0  0  0  0  0  0  0  0  0  0  0  0
   -2.8125   -4.2332   -1.3283 O   0  0  0  0  0  0  0  0  0  0  0  0
   -0.6827   -4.3981   -2.0020 O   0  0  0  0  0  0  0  0  0  0  0  0
   -2.3686   -1.5309   -0.4703 C   0  0  0  0  0  0  0  0  0  0  0  0
   -3.6461   -1.9876   -0.2511 O   0  0  0  0  0  0  0  0  0  0  0  0
   -3.5988    0.2495    1.9332 C   0  0  0  0  0  0  0  0  0  0  0  0
  2  1  1  6
  2  3  1  0
  3  4  1  0
  4  5  2  0
  4  6  1  0
  6  7  1  6
  7  8  2  0
  8  9  1  0
  9 10  1  0
 10 11  1  0
 11 12  1  0
 12 13  1  0
 13 14  1  0
 14 15  1  0
 15 16  1  0
 16 17  1  0
 17 18  2  0
  9 19  2  0
 19 20  1  0
 20 21  1  0
 21 22  2  0
 21 23  1  0
 20 24  2  0
 24 25  1  0
  6 26  1  0
 26  2  1  0
 24  7  1  0
 17 12  1  0
M  END
