mol_50bd1786f716
     RDKit          3D

 31 36  0  0  0  0  0  0  0  0999 V2000
    1.6154   -3.8727   -1.1654 O   0  0  0  0  0  0  0  0  0  0  0  0
    2.3169   -2.8732   -1.2873 C   0  0  0  0  0  0  0  0  0  0  0  0
    1.8540   -1.6777   -2.1378 C   0  0  0  0  0  0  0  0  0  0  0  0
    2.4673   -0.4093   -1.6606 N   0  0  0  0  0  0  0  0  0  0  0  0
    2.4107    0.6433   -2.6908 C   0  0  0  0  0  0  0  0  0  0  0  0
    0.9915    1.0781   -3.0842 C   0  0  0  0  0  0  0  0  0  0  0  0
    0.0909    1.2618   -1.8893 C   0  0  0  0  0  0  0  0  0  0  0  0
   -1.1525    1.8953   -2.0397 C   0  0  0  0  0  0  0  0  0  0  0  0
   -2.0393    2.0454   -0.9570 C   0  0  0  0  0  0  0  0  0  0  0  0
   -1.6394    1.5669    0.3125 C   0  0  0  0  0  0  0  0  0  0  0  0
   -0.4066    0.9116    0.4463 C   0  0  0  0  0  0  0  0  0  0  0  0
    0.4596    0.7434   -0.6421 C   0  0  0  0  0  0  0  0  0  0  0  0
    1.8034    0.0814   -0.4305 C   0  0  0  0  0  0  0  0  0  0  0  0
   -2.4680    1.7432    1.3999 N   0  0  0  0  0  0  0  0  0  0  0  0
   -2.7371    0.6910    2.3655 C   0  0  0  0  0  0  0  0  0  0  0  0
   -4.2063    0.9101    2.7085 C   0  0  0  0  0  0  0  0  0  0  0  0
   -4.3608    2.4224    2.6110 C   0  0  0  0  0  0  0  0  0  0  0  0
   -3.4637    2.8184    1.4211 C   0  0  2  0  0  0  0  0  0  0  0  0
   -4.1246    2.9828    0.0677 C   0  0  0  0  0  0  0  0  0  0  0  0
   -5.3911    3.5680   -0.0716 C   0  0  0  0  0  0  0  0  0  0  0  0
   -5.9130    3.7422   -1.3417 C   0  0  0  0  0  0  0  0  0  0  0  0
   -5.2669    3.3911   -2.4674 N   0  0  0  0  0  0  0  0  0  0  0  0
   -4.0329    2.8498   -2.3128 C   0  0  0  0  0  0  0  0  0  0  0  0
   -3.3926    2.6363   -1.0903 C   0  0  0  0  0  0  0  0  0  0  0  0
    3.5877   -2.6838   -0.7731 N   0  0  0  0  0  0  0  0  0  0  0  0
    4.3614   -3.5635    0.0007 C   0  0  0  0  0  0  0  0  0  0  0  0
    5.6145   -3.1064    0.4279 C   0  0  0  0  0  0  0  0  0  0  0  0
    6.4447   -3.9216    1.2016 C   0  0  0  0  0  0  0  0  0  0  0  0
    6.0285   -5.2024    1.5544 C   0  0  0  0  0  0  0  0  0  0  0  0
    4.7841   -5.6653    1.1328 C   0  0  0  0  0  0  0  0  0  0  0  0
    3.9532   -4.8491    0.3584 C   0  0  0  0  0  0  0  0  0  0  0  0
  1  2  2  0
  2  3  1  0
  3  4  1  0
  4  5  1  0
  5  6  1  0
  6  7  1  0
  7  8  1  0
  8  9  2  0
  9 10  1  0
 10 11  2  0
 11 12  1  0
 12 13  1  0
 10 14  1  0
 14 15  1  0
 15 16  1  0
 16 17  1  0
 18 17  1  1
 18 19  1  0
 19 20  1  0
 20 21  2  0
 21 22  1  0
 22 23  2  0
 23 24  1  0
  2 25  1  0
 25 26  1  0
 26 27  2  0
 27 28  1  0
 28 29  2  0
 29 30  1  0
 30 31  2  0
 13  4  1  0
 18 14  1  0
 24 19  2  0
 31 26  1  0
 12  7  2  0
 24  9  1  0
M  END
