mol_eb459107f9e6
     RDKit          3D

 28 30  0  0  0  0  0  0  0  0999 V2000
    5.2982    2.0283    3.5075 C   0  0  0  0  0  0  0  0  0  0  0  0
    5.0067    1.0223    2.4415 C   0  0  0  0  0  0  0  0  0  0  0  0
    3.7931    0.4882    2.2300 C   0  0  0  0  0  0  0  0  0  0  0  0
    3.4846   -0.4826    1.1821 C   0  0  0  0  0  0  0  0  0  0  0  0
    4.2228   -1.6056    1.1198 C   0  0  0  0  0  0  0  0  0  0  0  0
    3.9375   -2.6728    0.1410 C   0  0  0  0  0  0  0  0  0  0  0  0
    4.7730   -3.5555   -0.0619 O   0  0  0  0  0  0  0  0  0  0  0  0
    2.5720   -2.6916   -0.5321 C   0  0  2  0  0  0  0  0  0  0  0  0
    2.6762   -3.2972   -1.8178 O   0  0  0  0  0  0  0  0  0  0  0  0
    1.9418   -1.3247   -0.6353 C   0  0  0  0  0  0  0  0  0  0  0  0
    0.8883   -1.1059   -1.5435 C   0  0  0  0  0  0  0  0  0  0  0  0
    0.2761    0.1444   -1.6164 C   0  0  0  0  0  0  0  0  0  0  0  0
   -0.8281    0.3689   -2.5664 C   0  0  0  0  0  0  0  0  0  0  0  0
   -0.5229    0.6881   -3.7113 O   0  0  0  0  0  0  0  0  0  0  0  0
   -2.1372    0.2245   -2.1044 N   0  0  0  0  0  0  0  0  0  0  0  0
   -3.2122    0.7004   -2.9740 C   0  0  0  0  0  0  0  0  0  0  0  0
   -4.4621   -0.1637   -2.8903 C   0  0  0  0  0  0  0  0  0  0  0  0
   -4.9138   -0.3307   -1.4472 C   0  0  0  0  0  0  0  0  0  0  0  0
   -3.7880   -0.9292   -0.6110 C   0  0  0  0  0  0  0  0  0  0  0  0
   -2.4828   -0.1251   -0.7065 C   0  0  2  0  0  0  0  0  0  0  0  0
   -2.5428    1.1263    0.2147 C   0  0  0  0  0  0  0  0  0  0  0  0
   -2.8815    2.2244   -0.2363 O   0  0  0  0  0  0  0  0  0  0  0  0
   -2.2320    0.9682    1.5659 N   0  0  0  0  0  0  0  0  0  0  0  0
   -1.7948   -0.2686    2.1971 C   0  0  0  0  0  0  0  0  0  0  0  0
   -2.2119    2.1478    2.4185 C   0  0  0  0  0  0  0  0  0  0  0  0
    0.7093    1.1954   -0.8129 C   0  0  0  0  0  0  0  0  0  0  0  0
    1.7478    0.9810    0.0954 C   0  0  0  0  0  0  0  0  0  0  0  0
    2.3689   -0.2784    0.2113 C   0  0  0  0  0  0  0  0  0  0  0  0
  1  2  1  0
  2  3  2  3
  3  4  1  0
  4  5  2  0
  5  6  1  0
  6  7  2  0
  6  8  1  0
  8  9  1  6
  8 10  1  0
 10 11  1  0
 11 12  2  0
 12 13  1  0
 13 14  2  0
 13 15  1  0
 15 16  1  0
 16 17  1  0
 17 18  1  0
 18 19  1  0
 19 20  1  0
 20 21  1  1
 21 22  2  0
 21 23  1  0
 23 24  1  0
 23 25  1  0
 12 26  1  0
 26 27  2  0
 27 28  1  0
 28  4  1  0
 28 10  2  0
 20 15  1  0
M  END
