mol_98590eb90928
     RDKit          3D

 26 28  0  0  0  0  0  0  0  0999 V2000
    1.9852    3.5662   -0.1218 C   0  0  0  0  0  0  0  0  0  0  0  0
    1.3044    2.3685    0.5327 C   0  0  0  0  0  0  0  0  0  0  0  0
    1.5949    1.0643   -0.2079 C   0  0  0  0  0  0  0  0  0  0  0  0
    2.6752    0.2956    0.0972 C   0  0  0  0  0  0  0  0  0  0  0  0
    2.9682   -0.9139   -0.6828 C   0  0  0  0  0  0  0  0  0  0  0  0
    2.1504   -1.2871   -1.6892 C   0  0  0  0  0  0  0  0  0  0  0  0
    2.2916   -2.5202   -2.5398 C   0  0  0  0  0  0  0  0  0  0  0  0
    0.9545   -0.4584   -2.0216 C   0  0  0  0  0  0  0  0  0  0  0  0
    0.2130   -0.8131   -2.9386 O   0  0  0  0  0  0  0  0  0  0  0  0
    0.7294    0.6801   -1.2479 N   0  0  0  0  0  0  0  0  0  0  0  0
   -0.4813    1.4472   -1.5826 C   0  0  0  0  0  0  0  0  0  0  0  0
   -1.6925    1.0738   -0.7206 C   0  0  0  0  0  0  0  0  0  0  0  0
   -2.3295   -0.2547   -1.1287 C   0  0  0  0  0  0  0  0  0  0  0  0
   -3.5068   -0.5454   -0.3053 N   0  0  0  0  0  0  0  0  0  0  0  0
   -3.3223   -1.4849    0.7929 C   0  0  0  0  0  0  0  0  0  0  0  0
   -4.4294   -1.4555    1.8288 C   0  0  0  0  0  0  0  0  0  0  0  0
   -5.7728   -1.5004    1.1253 C   0  0  0  0  0  0  0  0  0  0  0  0
   -5.9403   -0.3016    0.1956 C   0  0  1  0  0  0  0  0  0  0  0  0
   -6.2394    0.9857    0.9666 C   0  0  0  0  0  0  0  0  0  0  0  0
   -4.7385   -0.0543   -0.7103 C   0  0  0  0  0  0  0  0  0  0  0  0
   -4.8707    0.6398   -1.7209 O   0  0  0  0  0  0  0  0  0  0  0  0
    4.1873   -1.7504   -0.3464 C   0  0  0  0  0  0  0  0  0  0  0  0
    5.2534   -1.0637    0.4950 C   0  0  0  0  0  0  0  0  0  0  0  0
    4.5992   -0.4024    1.6966 C   0  0  1  0  0  0  0  0  0  0  0  0
    5.6494    0.1787    2.6421 C   0  0  0  0  0  0  0  0  0  0  0  0
    3.6455    0.6907    1.2036 C   0  0  0  0  0  0  0  0  0  0  0  0
  1  2  1  0
  2  3  1  0
  3  4  2  0
  4  5  1  0
  5  6  2  0
  6  7  1  0
  6  8  1  0
  8  9  2  0
  8 10  1  0
 10 11  1  0
 11 12  1  0
 12 13  1  0
 13 14  1  0
 14 15  1  0
 15 16  1  0
 16 17  1  0
 17 18  1  0
 18 19  1  1
 18 20  1  0
 20 21  2  0
  5 22  1  0
 22 23  1  0
 23 24  1  0
 24 25  1  1
 24 26  1  0
 10  3  1  0
 20 14  1  0
 26  4  1  0
M  END
