mol_668ebce87e46
     RDKit          3D

 31 36  0  0  0  0  0  0  0  0999 V2000
    0.9072   -3.9687   -0.6496 C   0  0  0  0  0  0  0  0  0  0  0  0
    1.2261   -2.5550   -0.5455 N   0  0  0  0  0  0  0  0  0  0  0  0
    0.2092   -1.6867   -0.1691 C   0  0  0  0  0  0  0  0  0  0  0  0
   -0.8844   -2.1039    0.2036 O   0  0  0  0  0  0  0  0  0  0  0  0
    0.5126   -0.2357   -0.2195 C   0  0  0  0  0  0  0  0  0  0  0  0
   -0.4954    0.7503   -0.0948 C   0  0  0  0  0  0  0  0  0  0  0  0
   -1.8601    0.5009    0.0488 N   0  0  0  0  0  0  0  0  0  0  0  0
   -2.4221    0.4682    1.4311 C   0  0  0  0  0  0  0  0  0  0  0  0
   -3.9028    0.3091    1.2123 C   0  0  2  0  0  0  0  0  0  0  0  0
   -5.0847    0.6155    2.0838 C   0  0  0  0  0  0  0  0  0  0  0  0
   -6.3393    0.6266    1.1420 C   0  0  0  0  0  0  0  0  0  0  0  0
   -6.1001    1.0315   -0.3564 C   0  0  0  0  0  0  0  0  0  0  0  0
   -5.3394    0.0563   -1.3309 C   0  0  0  0  0  0  0  0  0  0  0  0
   -3.9891   -0.6462   -0.9366 C   0  0  2  0  0  0  0  0  0  0  0  0
   -4.0900   -1.0353    0.5112 C   0  0  0  0  0  0  0  0  0  0  0  0
   -2.6607    0.1618   -1.1782 C   0  0  0  0  0  0  0  0  0  0  0  0
   -0.0974    2.0989   -0.1442 C   0  0  0  0  0  0  0  0  0  0  0  0
   -1.0510    3.0819   -0.0739 O   0  0  0  0  0  0  0  0  0  0  0  0
    1.2228    2.4877   -0.2763 C   0  0  0  0  0  0  0  0  0  0  0  0
    2.2152    1.5117   -0.3806 C   0  0  0  0  0  0  0  0  0  0  0  0
    1.8600    0.1364   -0.3878 C   0  0  0  0  0  0  0  0  0  0  0  0
    2.8710   -0.8620   -0.5701 N   0  0  0  0  0  0  0  0  0  0  0  0
    2.5488   -2.1988   -0.7517 C   0  0  0  0  0  0  0  0  0  0  0  0
    3.3863   -3.0435   -1.0749 O   0  0  0  0  0  0  0  0  0  0  0  0
    4.2346   -0.3937   -0.8323 C   0  0  2  0  0  0  0  0  0  0  0  0
    5.4404   -1.3018   -0.5553 C   0  0  0  0  0  0  0  0  0  0  0  0
    6.6389   -0.3437   -0.4668 C   0  0  0  0  0  0  0  0  0  0  0  0
    6.0558    1.0749   -0.4440 C   0  0  0  0  0  0  0  0  0  0  0  0
    4.5917    0.8727   -0.0348 C   0  0  2  0  0  0  0  0  0  0  0  0
    4.5153    0.7074    1.5048 C   0  0  0  0  0  0  0  0  0  0  0  0
    3.6503    1.9769   -0.4996 C   0  0  0  0  0  0  0  0  0  0  0  0
  1  2  1  0
  2  3  1  0
  3  4  2  0
  3  5  1  0
  5  6  2  0
  6  7  1  0
  7  8  1  0
  9  8  1  1
  9 10  1  0
 10 11  1  0
 11 12  1  0
 12 13  1  0
 14 13  1  1
 14 15  1  0
 14 16  1  0
  6 17  1  0
 17 18  1  0
 17 19  2  0
 19 20  1  0
 20 21  2  0
 21 22  1  0
 22 23  1  0
 23 24  2  0
 22 25  1  0
 25 26  1  1
 26 27  1  0
 27 28  1  0
 28 29  1  0
 29 30  1  1
 29 31  1  0
 23  2  1  0
 29 25  1  0
 21  5  1  0
 16  7  1  0
 31 20  1  0
 15  9  1  0
M  END
