mol_f0e261e11ca1
     RDKit          3D

 23 25  0  0  0  0  0  0  0  0999 V2000
    5.6408    0.5703   -0.5774 C   0  0  0  0  0  0  0  0  0  0  0  0
    4.7866    0.0804    0.4510 O   0  0  0  0  0  0  0  0  0  0  0  0
    3.4402    0.2133    0.2227 C   0  0  0  0  0  0  0  0  0  0  0  0
    2.6801   -0.8503    0.7225 C   0  0  0  0  0  0  0  0  0  0  0  0
    1.2740   -0.9111    0.5991 C   0  0  0  0  0  0  0  0  0  0  0  0
    0.5155   -1.9970    1.1160 C   0  0  0  0  0  0  0  0  0  0  0  0
    1.1910   -3.1522    1.8296 C   0  0  0  0  0  0  0  0  0  0  0  0
    0.2714   -4.1566    2.2487 O   0  0  0  0  0  0  0  0  0  0  0  0
   -0.8799   -1.9865    0.9783 C   0  0  0  0  0  0  0  0  0  0  0  0
   -1.5477   -0.9457    0.3257 C   0  0  0  0  0  0  0  0  0  0  0  0
   -0.8004    0.1118   -0.2295 C   0  0  0  0  0  0  0  0  0  0  0  0
    0.6159    0.1581   -0.0633 C   0  0  0  0  0  0  0  0  0  0  0  0
    1.4053    1.2452   -0.5240 C   0  0  0  0  0  0  0  0  0  0  0  0
    2.7986    1.2961   -0.3773 C   0  0  0  0  0  0  0  0  0  0  0  0
    3.5699    2.3539   -0.7771 O   0  0  0  0  0  0  0  0  0  0  0  0
    2.9117    3.5530   -1.1638 C   0  0  0  0  0  0  0  0  0  0  0  0
   -1.5521    1.2131   -0.9569 C   0  0  0  0  0  0  0  0  0  0  0  0
   -2.9211    0.7570   -1.4530 C   0  0  0  0  0  0  0  0  0  0  0  0
   -3.6809    0.1451   -0.3758 N   0  0  0  0  0  0  0  0  0  0  0  0
   -4.9600    0.5966   -0.0995 C   0  0  0  0  0  0  0  0  0  0  0  0
   -5.7397   -0.1416    0.9598 C   0  0  0  0  0  0  0  0  0  0  0  0
   -5.4658    1.5611   -0.6742 O   0  0  0  0  0  0  0  0  0  0  0  0
   -3.0586   -1.0144    0.2502 C   0  0  0  0  0  0  0  0  0  0  0  0
  1  2  1  0
  2  3  1  0
  3  4  2  0
  4  5  1  0
  5  6  2  0
  6  7  1  0
  7  8  1  0
  6  9  1  0
  9 10  2  0
 10 11  1  0
 11 12  2  0
 12 13  1  0
 13 14  2  0
 14 15  1  0
 15 16  1  0
 11 17  1  0
 17 18  1  0
 18 19  1  0
 19 20  1  0
 20 21  1  0
 20 22  2  0
 19 23  1  0
 14  3  1  0
 12  5  1  0
 23 10  1  0
M  END
