mol_72b345313c7d
     RDKit          3D

 26 30  0  0  0  0  0  0  0  0999 V2000
   -3.7341   -3.3350    0.4109 C   0  0  0  0  0  0  0  0  0  0  0  0
   -3.2645   -1.9572    0.3650 N   0  0  0  0  0  0  0  0  0  0  0  0
   -4.1744   -0.9278    0.4494 C   0  0  0  0  0  0  0  0  0  0  0  0
   -5.3863   -1.1278    0.5644 O   0  0  0  0  0  0  0  0  0  0  0  0
   -3.6805    0.3594    0.4137 N   0  0  0  0  0  0  0  0  0  0  0  0
   -4.6315    1.4546    0.5832 C   0  0  0  0  0  0  0  0  0  0  0  0
   -3.9793    2.8304    0.5464 C   0  0  0  0  0  0  0  0  0  0  0  0
   -2.7830    2.8978    1.4906 C   0  0  0  0  0  0  0  0  0  0  0  0
   -1.8743    1.6638    1.4032 C   0  0  0  0  0  0  0  0  0  0  0  0
   -2.2739    0.7023    0.2670 C   0  0  1  0  0  0  0  0  0  0  0  0
   -1.3698   -0.4859    0.1809 C   0  0  0  0  0  0  0  0  0  0  0  0
    0.0093   -0.3510   -0.0037 C   0  0  0  0  0  0  0  0  0  0  0  0
    0.8456   -1.4795   -0.0993 C   0  0  0  0  0  0  0  0  0  0  0  0
    2.2547   -1.4086   -0.2744 C   0  0  0  0  0  0  0  0  0  0  0  0
    2.9195   -0.1971   -0.4666 N   0  0  0  0  0  0  0  0  0  0  0  0
    4.1100    0.1059    0.3284 C   0  0  0  0  0  0  0  0  0  0  0  0
    4.4711    1.5793    0.1637 C   0  0  0  0  0  0  0  0  0  0  0  0
    4.7543    1.9366   -1.2971 C   0  0  0  0  0  0  0  0  0  0  0  0
    4.0452    1.0111   -2.2874 C   0  0  0  0  0  0  0  0  0  0  0  0
    2.7142    0.5003   -1.7412 C   0  0  0  0  0  0  0  0  0  0  0  0
    2.9699   -2.6041   -0.2790 C   0  0  0  0  0  0  0  0  0  0  0  0
    2.2785   -3.7884   -0.1441 C   0  0  0  0  0  0  0  0  0  0  0  0
    0.9424   -3.8645   -0.0049 N   0  0  0  0  0  0  0  0  0  0  0  0
    0.2335   -2.7380    0.0214 C   0  0  0  0  0  0  0  0  0  0  0  0
   -1.0840   -2.8607    0.1694 N   0  0  0  0  0  0  0  0  0  0  0  0
   -1.8759   -1.7650    0.2378 C   0  0  0  0  0  0  0  0  0  0  0  0
  1  2  1  0
  2  3  1  0
  3  4  2  0
  3  5  1  0
  5  6  1  0
  6  7  1  0
  7  8  1  0
  8  9  1  0
 10  9  1  1
 10 11  1  0
 11 12  2  0
 12 13  1  0
 13 14  2  0
 14 15  1  0
 15 16  1  0
 16 17  1  0
 17 18  1  0
 18 19  1  0
 19 20  1  0
 14 21  1  0
 21 22  2  0
 22 23  1  0
 23 24  2  0
 24 25  1  0
 25 26  2  0
 26  2  1  0
 10  5  1  0
 26 11  1  0
 24 13  1  0
 20 15  1  0
M  END
