mol_eae9c9c89845
     RDKit          3D

 28 31  0  0  0  0  0  0  0  0999 V2000
    2.3016    2.4120    3.4323 O   0  0  0  0  0  0  0  0  0  0  0  0
    3.1809    1.8141    2.8368 C   0  0  0  0  0  0  0  0  0  0  0  0
    4.4663    1.9553    3.2109 O   0  0  0  0  0  0  0  0  0  0  0  0
    2.9890    0.8232    1.7564 C   0  0  0  0  0  0  0  0  0  0  0  0
    1.8628    0.1067    1.9196 C   0  0  0  0  0  0  0  0  0  0  0  0
    1.4745   -0.9067    1.0658 N   0  0  0  0  0  0  0  0  0  0  0  0
    0.2286   -1.6300    1.3426 C   0  0  0  0  0  0  0  0  0  0  0  0
   -1.0286   -0.8583    0.8975 C   0  0  2  0  0  0  0  0  0  0  0  0
   -2.2816   -1.6105    1.3336 C   0  0  0  0  0  0  0  0  0  0  0  0
   -3.5195   -0.7968    1.0131 C   0  0  0  0  0  0  0  0  0  0  0  0
   -3.6024   -0.2509   -0.3415 N   0  0  0  0  0  0  0  0  0  0  0  0
   -4.8356    0.3378   -0.6365 C   0  0  0  0  0  0  0  0  0  0  0  0
   -5.8386    0.1437    0.0554 O   0  0  0  0  0  0  0  0  0  0  0  0
   -4.9172    1.2970   -1.7967 C   0  0  0  0  0  0  0  0  0  0  0  0
   -4.6419    0.6024   -3.1062 C   0  0  0  0  0  0  0  0  0  0  0  0
   -3.2477    0.6222   -3.3853 O   0  0  0  0  0  0  0  0  0  0  0  0
   -2.5109   -0.3281   -2.6216 C   0  0  0  0  0  0  0  0  0  0  0  0
   -2.3676    0.0344   -1.1181 C   0  0  2  0  0  0  0  0  0  0  0  0
   -1.1107   -0.7115   -0.6191 C   0  0  0  0  0  0  0  0  0  0  0  0
    2.2286   -1.2644   -0.0497 C   0  0  0  0  0  0  0  0  0  0  0  0
    1.9051   -2.1591   -0.8269 O   0  0  0  0  0  0  0  0  0  0  0  0
    3.4732   -0.4828   -0.2921 C   0  0  0  0  0  0  0  0  0  0  0  0
    4.2149   -0.7915   -1.4477 C   0  0  0  0  0  0  0  0  0  0  0  0
    5.3582   -0.0690   -1.7596 C   0  0  0  0  0  0  0  0  0  0  0  0
    5.7603    0.9566   -0.9156 C   0  0  0  0  0  0  0  0  0  0  0  0
    5.0327    1.2514    0.2443 C   0  0  0  0  0  0  0  0  0  0  0  0
    5.5634    2.2799    0.9715 O   0  0  0  0  0  0  0  0  0  0  0  0
    3.8661    0.5462    0.5938 C   0  0  0  0  0  0  0  0  0  0  0  0
  1  2  2  0
  2  3  1  0
  2  4  1  0
  4  5  2  0
  5  6  1  0
  6  7  1  0
  8  7  1  6
  8  9  1  0
  9 10  1  0
 10 11  1  0
 11 12  1  0
 12 13  2  0
 12 14  1  0
 14 15  1  0
 15 16  1  0
 16 17  1  0
 18 17  1  6
 18 19  1  0
  6 20  1  0
 20 21  2  0
 20 22  1  0
 22 23  2  0
 23 24  1  0
 24 25  2  0
 25 26  1  0
 26 27  1  0
 26 28  2  0
 28  4  1  0
 19  8  1  0
 28 22  1  0
 18 11  1  0
M  END
