mol_3349e7209ec3
     RDKit          3D

 27 31  0  0  0  0  0  0  0  0999 V2000
   -3.9855   -0.2877   -3.4886 O   0  0  0  0  0  0  0  0  0  0  0  0
   -3.2446   -0.1974   -2.5088 C   0  0  0  0  0  0  0  0  0  0  0  0
   -1.8993   -0.3233   -2.6787 N   0  0  0  0  0  0  0  0  0  0  0  0
   -0.7964   -0.3064   -1.8804 C   0  0  0  0  0  0  0  0  0  0  0  0
    0.2669   -0.1693   -2.5842 N   0  0  0  0  0  0  0  0  0  0  0  0
    1.4778   -0.0800   -1.9718 C   0  0  0  0  0  0  0  0  0  0  0  0
    2.4908    0.0279   -2.6558 O   0  0  0  0  0  0  0  0  0  0  0  0
    1.5144   -0.1067   -0.5760 N   0  0  0  0  0  0  0  0  0  0  0  0
    2.8111    0.1645    0.0909 C   0  0  0  0  0  0  0  0  0  0  0  0
    3.4569    1.5080   -0.3145 C   0  0  0  0  0  0  0  0  0  0  0  0
    4.7486    1.7547    0.4655 C   0  0  0  0  0  0  0  0  0  0  0  0
    5.7263    0.5928    0.3096 C   0  0  0  0  0  0  0  0  0  0  0  0
    5.0945   -0.7368    0.7131 C   0  0  0  0  0  0  0  0  0  0  0  0
    3.7979   -1.0056   -0.0493 C   0  0  0  0  0  0  0  0  0  0  0  0
    0.3745   -0.4343    0.1705 C   0  0  0  0  0  0  0  0  0  0  0  0
    0.4810   -0.7950    1.5145 N   0  0  0  0  0  0  0  0  0  0  0  0
   -0.5545   -1.3080    2.2401 C   0  0  0  0  0  0  0  0  0  0  0  0
   -1.7963   -1.3723    1.7519 C   0  0  0  0  0  0  0  0  0  0  0  0
   -2.0726   -0.8005    0.4077 C   0  0  0  0  0  0  0  0  0  0  0  0
   -3.3655   -0.5148    0.0722 C   0  0  0  0  0  0  0  0  0  0  0  0
   -3.7696    0.1391   -1.1733 C   0  0  0  0  0  0  0  0  0  0  0  0
   -4.8454    0.9581   -1.1784 C   0  0  0  0  0  0  0  0  0  0  0  0
   -5.7145    1.1648    0.0313 C   0  0  0  0  0  0  0  0  0  0  0  0
   -5.5491    0.0471    1.0330 C   0  0  0  0  0  0  0  0  0  0  0  0
   -6.5705   -0.1748    1.9356 O   0  0  0  0  0  0  0  0  0  0  0  0
   -4.4787   -0.7625    1.0192 C   0  0  0  0  0  0  0  0  0  0  0  0
   -0.8624   -0.4716   -0.4169 C   0  0  0  0  0  0  0  0  0  0  0  0
  1  2  2  0
  2  3  1  0
  3  4  1  0
  4  5  2  0
  5  6  1  0
  6  7  2  0
  6  8  1  0
  8  9  1  0
  9 10  1  0
 10 11  1  0
 11 12  1  0
 12 13  1  0
 13 14  1  0
  8 15  1  0
 15 16  1  0
 16 17  1  0
 17 18  2  0
 18 19  1  0
 19 20  2  0
 20 21  1  0
 21 22  2  0
 22 23  1  0
 23 24  1  0
 24 25  1  0
 24 26  2  0
 19 27  1  0
 21  2  1  0
 27  4  1  0
 14  9  1  0
 27 15  2  0
 26 20  1  0
M  END
