mol_e45d195a1b3b
     RDKit          3D

 29 33  0  0  0  0  0  0  0  0999 V2000
   -3.6053    0.0070   -1.8462 C   0  0  0  0  0  0  0  0  0  0  0  0
   -3.1426    0.7711   -0.5590 C   0  0  2  0  0  0  0  0  0  0  0  0
   -3.1777    2.2592   -0.9993 C   0  0  0  0  0  0  0  0  0  0  0  0
   -2.2944    3.2107   -0.2166 C   0  0  0  0  0  0  0  0  0  0  0  0
   -0.9123    3.2365   -0.8295 C   0  0  0  0  0  0  0  0  0  0  0  0
   -0.1312    2.0518   -0.6499 N   0  0  0  0  0  0  0  0  0  0  0  0
    1.2753    2.1241   -0.7233 C   0  0  0  0  0  0  0  0  0  0  0  0
    1.9303    3.1184   -1.0000 O   0  0  0  0  0  0  0  0  0  0  0  0
    1.7665    0.8512   -0.3982 N   0  0  0  0  0  0  0  0  0  0  0  0
    3.1889    0.5674   -0.3249 C   0  0  0  0  0  0  0  0  0  0  0  0
    3.7000    0.3701    1.1083 C   0  0  0  0  0  0  0  0  0  0  0  0
    5.2257    0.2551    1.1662 C   0  0  0  0  0  0  0  0  0  0  0  0
    5.8532   -0.3940   -0.0688 C   0  0  0  0  0  0  0  0  0  0  0  0
    4.8761   -1.2902   -0.8174 C   0  0  0  0  0  0  0  0  0  0  0  0
    3.6709   -0.4985   -1.3257 C   0  0  0  0  0  0  0  0  0  0  0  0
    0.6693    0.0008   -0.1256 C   0  0  0  0  0  0  0  0  0  0  0  0
    0.6427   -1.3254    0.2718 C   0  0  0  0  0  0  0  0  0  0  0  0
    1.8064   -2.0173    0.4588 O   0  0  0  0  0  0  0  0  0  0  0  0
   -0.6043   -1.9290    0.4826 C   0  0  0  0  0  0  0  0  0  0  0  0
   -0.5978   -3.3724    0.8319 C   0  0  0  0  0  0  0  0  0  0  0  0
   -1.4595   -4.1891    0.1597 N   0  0  0  0  0  0  0  0  0  0  0  0
    0.2290   -3.8135    1.6219 O   0  0  0  0  0  0  0  0  0  0  0  0
   -1.8062   -1.1801    0.3504 C   0  0  0  0  0  0  0  0  0  0  0  0
   -1.7889    0.1611   -0.1586 C   0  0  0  0  0  0  0  0  0  0  0  0
   -0.5259    0.7398   -0.3249 C   0  0  0  0  0  0  0  0  0  0  0  0
   -3.1269   -1.7706    0.8098 C   0  0  0  0  0  0  0  0  0  0  0  0
   -3.9849   -0.6981    1.4541 C   0  0  0  0  0  0  0  0  0  0  0  0
   -4.2165    0.5252    0.5643 C   0  0  1  0  0  0  0  0  0  0  0  0
   -4.3678    1.6518    1.4353 O   0  0  0  0  0  0  0  0  0  0  0  0
  2  1  1  6
  2  3  1  0
  3  4  1  0
  4  5  1  0
  5  6  1  0
  6  7  1  0
  7  8  2  0
  7  9  1  0
  9 10  1  0
 10 11  1  0
 11 12  1  0
 12 13  1  0
 13 14  1  0
 14 15  1  0
  9 16  1  0
 16 17  2  0
 17 18  1  0
 17 19  1  0
 19 20  1  0
 20 21  1  0
 20 22  2  0
 19 23  2  0
 23 24  1  0
 24 25  2  0
 23 26  1  0
 26 27  1  0
 27 28  1  0
 28 29  1  1
 24  2  1  0
 28  2  1  0
 25  6  1  0
 15 10  1  0
 25 16  1  0
M  END
