mol_6caf02d12d91
     RDKit          3D

 25 27  0  0  0  0  0  0  0  0999 V2000
   -3.5502    0.6716   -3.0543 C   0  0  0  0  0  0  0  0  0  0  0  0
   -3.1839    1.7988   -2.0953 C   0  0  0  0  0  0  0  0  0  0  0  0
   -3.0017    1.3837   -0.6161 C   0  0  1  0  0  0  0  0  0  0  0  0
   -4.3345    0.9347   -0.0096 C   0  0  0  0  0  0  0  0  0  0  0  0
   -4.1355    0.3683    1.3901 C   0  0  2  0  0  0  0  0  0  0  0  0
   -3.6690    1.3863    2.4284 C   0  0  0  0  0  0  0  0  0  0  0  0
   -3.2603   -0.7638    1.3769 O   0  0  0  0  0  0  0  0  0  0  0  0
   -2.1255   -0.6651    0.6125 C   0  0  0  0  0  0  0  0  0  0  0  0
   -1.1509   -1.6594    0.8361 C   0  0  0  0  0  0  0  0  0  0  0  0
   -1.3782   -2.7510    1.8538 C   0  0  0  0  0  0  0  0  0  0  0  0
   -0.6943   -3.9471    1.4891 O   0  0  0  0  0  0  0  0  0  0  0  0
    0.0703   -1.5795    0.1493 C   0  0  0  0  0  0  0  0  0  0  0  0
    0.3053   -0.5366   -0.7469 C   0  0  0  0  0  0  0  0  0  0  0  0
    1.5821   -0.4462   -1.4883 C   0  0  0  0  0  0  0  0  0  0  0  0
    1.5259   -0.4319   -2.7156 O   0  0  0  0  0  0  0  0  0  0  0  0
    2.7774   -0.3749   -0.7825 N   0  0  0  0  0  0  0  0  0  0  0  0
    2.9072   -0.2432    0.6660 C   0  0  0  0  0  0  0  0  0  0  0  0
    4.0742    0.6698    1.0304 C   0  0  0  0  0  0  0  0  0  0  0  0
    5.3261    0.2048    0.4535 N   0  0  0  0  0  0  0  0  0  0  0  0
    6.5562    0.4974    1.1646 C   0  0  0  0  0  0  0  0  0  0  0  0
    5.3634   -0.3257   -0.8297 C   0  0  0  0  0  0  0  0  0  0  0  0
    6.4198   -0.6010   -1.4007 O   0  0  0  0  0  0  0  0  0  0  0  0
    4.0159   -0.4944   -1.5555 C   0  0  0  0  0  0  0  0  0  0  0  0
   -0.6905    0.4082   -1.0073 C   0  0  0  0  0  0  0  0  0  0  0  0
   -1.9280    0.3469   -0.3459 C   0  0  0  0  0  0  0  0  0  0  0  0
  1  2  1  0
  3  2  1  6
  3  4  1  0
  4  5  1  0
  5  6  1  1
  5  7  1  0
  7  8  1  0
  8  9  2  0
  9 10  1  0
 10 11  1  0
  9 12  1  0
 12 13  2  0
 13 14  1  0
 14 15  2  0
 14 16  1  0
 16 17  1  0
 17 18  1  0
 18 19  1  0
 19 20  1  0
 19 21  1  0
 21 22  2  0
 21 23  1  0
 13 24  1  0
 24 25  2  0
 25  3  1  0
 25  8  1  0
 23 16  1  0
M  END
