mol_56d9f819e73e
     RDKit          3D

 26 28  0  0  0  0  0  0  0  0999 V2000
   -0.5115   -0.9069   -3.4965 C   0  0  0  0  0  0  0  0  0  0  0  0
   -0.1136   -1.7550   -2.2965 C   0  0  0  0  0  0  0  0  0  0  0  0
    0.2401   -0.9355   -1.1320 N   0  0  0  0  0  0  0  0  0  0  0  0
    1.5920   -0.6507   -0.9534 C   0  0  0  0  0  0  0  0  0  0  0  0
    2.4304   -1.0247   -1.7776 O   0  0  0  0  0  0  0  0  0  0  0  0
    1.9418    0.0839    0.1711 N   0  0  0  0  0  0  0  0  0  0  0  0
    3.3699    0.3561    0.4332 C   0  0  0  0  0  0  0  0  0  0  0  0
    4.2290   -0.9122    0.5682 C   0  0  0  0  0  0  0  0  0  0  0  0
    5.6451   -0.5801    1.0494 C   0  0  0  0  0  0  0  0  0  0  0  0
    6.1599    0.7742    0.5556 C   0  0  0  0  0  0  0  0  0  0  0  0
    5.4859    1.2099   -0.7389 C   0  0  0  0  0  0  0  0  0  0  0  0
    3.9720    1.3612   -0.5706 C   0  0  0  0  0  0  0  0  0  0  0  0
    1.0176    0.7351    0.9858 C   0  0  0  0  0  0  0  0  0  0  0  0
    1.3448    1.6127    1.7823 O   0  0  0  0  0  0  0  0  0  0  0  0
   -0.4053    0.3724    0.8206 C   0  0  0  0  0  0  0  0  0  0  0  0
   -1.3975    0.8386    1.6995 C   0  0  0  0  0  0  0  0  0  0  0  0
   -1.0977    1.5659    2.8236 O   0  0  0  0  0  0  0  0  0  0  0  0
   -1.2895    2.9615    2.5845 C   0  0  0  0  0  0  0  0  0  0  0  0
   -2.7416    0.4893    1.5227 C   0  0  0  0  0  0  0  0  0  0  0  0
   -3.1430   -0.2995    0.4427 C   0  0  0  0  0  0  0  0  0  0  0  0
   -4.6125   -0.6869    0.1960 C   0  0  0  0  0  0  0  0  0  0  0  0
   -5.5948   -0.1068    1.2391 C   0  0  0  0  0  0  0  0  0  0  0  0
   -4.7590   -2.2233    0.2362 C   0  0  0  0  0  0  0  0  0  0  0  0
   -5.0611   -0.1685   -1.1878 C   0  0  0  0  0  0  0  0  0  0  0  0
   -2.1302   -0.7510   -0.4308 C   0  0  0  0  0  0  0  0  0  0  0  0
   -0.7643   -0.4429   -0.2510 C   0  0  0  0  0  0  0  0  0  0  0  0
  1  2  1  0
  2  3  1  0
  3  4  1  0
  4  5  2  0
  4  6  1  0
  6  7  1  0
  7  8  1  0
  8  9  1  0
  9 10  1  0
 10 11  1  0
 11 12  1  0
  6 13  1  0
 13 14  2  0
 13 15  1  0
 15 16  2  0
 16 17  1  0
 17 18  1  0
 16 19  1  0
 19 20  2  0
 20 21  1  0
 21 22  1  0
 21 23  1  0
 21 24  1  0
 20 25  1  0
 25 26  2  0
 26  3  1  0
 12  7  1  0
 26 15  1  0
M  END
