mol_df82a3f1e2ee
     RDKit          3D

 21 24  0  0  0  0  0  0  0  0999 V2000
    5.3812    1.5180   -0.0111 C   0  0  0  0  0  0  0  0  0  0  0  0
    3.9650    1.0289    0.0474 C   0  0  0  0  0  0  0  0  0  0  0  0
    2.9155    1.8529   -0.0425 C   0  0  0  0  0  0  0  0  0  0  0  0
    1.5625    1.3280    0.0193 C   0  0  0  0  0  0  0  0  0  0  0  0
    0.4795    2.2023   -0.0706 C   0  0  0  0  0  0  0  0  0  0  0  0
   -0.8240    1.7091   -0.0373 C   0  0  0  0  0  0  0  0  0  0  0  0
   -1.0879    0.3383    0.0883 C   0  0  0  0  0  0  0  0  0  0  0  0
   -2.3920   -0.1167    0.0485 N   0  0  0  0  0  0  0  0  0  0  0  0
   -2.8697   -0.8926   -1.0990 C   0  0  0  0  0  0  0  0  0  0  0  0
   -4.3720   -0.6064   -1.1354 C   0  0  0  0  0  0  0  0  0  0  0  0
   -4.7057   -0.2855    0.3141 C   0  0  0  0  0  0  0  0  0  0  0  0
   -3.4922    0.5247    0.7605 C   0  0  0  0  0  0  0  0  0  0  0  0
    0.0228   -0.5363    0.2161 C   0  0  0  0  0  0  0  0  0  0  0  0
   -0.1643   -1.9627    0.4791 C   0  0  0  0  0  0  0  0  0  0  0  0
    0.8825   -2.7838    0.5495 C   0  0  0  0  0  0  0  0  0  0  0  0
    2.2762   -2.3098    0.3804 C   0  0  0  0  0  0  0  0  0  0  0  0
    3.1361   -3.1887    0.3675 O   0  0  0  0  0  0  0  0  0  0  0  0
    2.4710   -0.9381    0.2540 N   0  0  0  0  0  0  0  0  0  0  0  0
    3.7769   -0.4505    0.2184 C   0  0  0  0  0  0  0  0  0  0  0  0
    4.8006   -1.1256    0.3270 O   0  0  0  0  0  0  0  0  0  0  0  0
    1.3474   -0.0468    0.1653 C   0  0  0  0  0  0  0  0  0  0  0  0
  1  2  1  0
  2  3  2  0
  3  4  1  0
  4  5  1  0
  5  6  2  0
  6  7  1  0
  7  8  1  0
  8  9  1  0
  9 10  1  0
 10 11  1  0
 11 12  1  0
  7 13  2  0
 13 14  1  0
 14 15  2  0
 15 16  1  0
 16 17  2  0
 16 18  1  0
 18 19  1  0
 19 20  2  0
 18 21  1  0
 19  2  1  0
 21  4  2  0
 12  8  1  0
 21 13  1  0
M  END
