mol_1a16bb15ac53
     RDKit          3D

 28 31  0  0  0  0  0  0  0  0999 V2000
   -6.2516    2.3537    1.3616 C   0  0  0  0  0  0  0  0  0  0  0  0
   -5.4644    1.0975    1.1075 C   0  0  0  0  0  0  0  0  0  0  0  0
   -6.1356   -0.1277    1.0981 C   0  0  0  0  0  0  0  0  0  0  0  0
   -5.4420   -1.3135    0.8614 C   0  0  0  0  0  0  0  0  0  0  0  0
   -4.0600   -1.3154    0.6305 C   0  0  0  0  0  0  0  0  0  0  0  0
   -3.4073   -2.5387    0.3909 C   0  0  0  0  0  0  0  0  0  0  0  0
   -2.0268   -2.5597    0.1584 C   0  0  0  0  0  0  0  0  0  0  0  0
   -1.2023   -3.6256   -0.0952 N   0  0  0  0  0  0  0  0  0  0  0  0
   -0.0065   -3.1048   -0.2444 C   0  0  0  0  0  0  0  0  0  0  0  0
   -0.0207   -1.7430   -0.0972 N   0  0  0  0  0  0  0  0  0  0  0  0
    1.1352   -0.8643   -0.2157 C   0  0  0  0  0  0  0  0  0  0  0  0
    2.1999   -1.1610    0.8446 C   0  0  0  0  0  0  0  0  0  0  0  0
    3.4039   -0.2334    0.6767 C   0  0  0  0  0  0  0  0  0  0  0  0
    3.9559   -0.3473   -0.6803 N   0  0  0  0  0  0  0  0  0  0  0  0
    5.2363    0.3901   -0.8789 C   0  0  2  0  0  0  0  0  0  0  0  0
    6.3840   -0.2047   -0.0590 C   0  0  0  0  0  0  0  0  0  0  0  0
    5.1195    1.8894   -0.5914 C   0  0  0  0  0  0  0  0  0  0  0  0
    5.1811    2.4390    0.4975 O   0  0  0  0  0  0  0  0  0  0  0  0
    4.8940    2.6207   -1.7046 O   0  0  0  0  0  0  0  0  0  0  0  0
    2.9628    0.0192   -1.7006 C   0  0  0  0  0  0  0  0  0  0  0  0
    1.7443   -0.8984   -1.6207 C   0  0  0  0  0  0  0  0  0  0  0  0
   -1.3174   -1.3659    0.1696 C   0  0  0  0  0  0  0  0  0  0  0  0
   -1.9370   -0.1316    0.4115 C   0  0  0  0  0  0  0  0  0  0  0  0
   -3.3387   -0.0944    0.6441 C   0  0  0  0  0  0  0  0  0  0  0  0
   -4.0660    1.1038    0.9021 C   0  0  0  0  0  0  0  0  0  0  0  0
   -3.3393    2.3937    0.9368 C   0  0  0  0  0  0  0  0  0  0  0  0
   -2.6696    2.8802    0.0465 O   0  0  0  0  0  0  0  0  0  0  0  0
   -3.4593    2.9821    2.1406 O   0  0  0  0  0  0  0  0  0  0  0  0
  1  2  1  0
  2  3  1  0
  3  4  2  0
  4  5  1  0
  5  6  2  0
  6  7  1  0
  7  8  1  0
  8  9  2  0
  9 10  1  0
 10 11  1  0
 11 12  1  0
 12 13  1  0
 13 14  1  0
 14 15  1  0
 15 16  1  1
 15 17  1  0
 17 18  2  0
 17 19  1  0
 14 20  1  0
 20 21  1  0
 10 22  1  0
 22 23  1  0
 23 24  2  0
 24 25  1  0
 25 26  1  0
 26 27  2  0
 26 28  1  0
 25  2  2  0
 24  5  1  0
 22  7  2  0
 21 11  1  0
M  END
