mol_0493346559b5
     RDKit          3D

 26 29  0  0  0  0  0  0  0  0999 V2000
   -4.6684   -2.2772    1.2617 C   0  0  0  0  0  0  0  0  0  0  0  0
   -4.3934   -0.8752    1.3322 O   0  0  0  0  0  0  0  0  0  0  0  0
   -3.0777   -0.6250    1.0197 C   0  0  0  0  0  0  0  0  0  0  0  0
   -2.7611   -0.2635   -0.3057 C   0  0  0  0  0  0  0  0  0  0  0  0
   -1.4111   -0.0322   -0.6588 C   0  0  0  0  0  0  0  0  0  0  0  0
   -0.4158   -0.0944    0.3540 C   0  0  0  0  0  0  0  0  0  0  0  0
    1.0232    0.2281    0.1051 C   0  0  0  0  0  0  0  0  0  0  0  0
    1.3302    0.8165   -0.9254 O   0  0  0  0  0  0  0  0  0  0  0  0
    1.9500   -0.1111    1.0865 N   0  0  0  0  0  0  0  0  0  0  0  0
    3.4054    0.0196    0.8373 C   0  0  0  0  0  0  0  0  0  0  0  0
    3.9166    1.4638    0.9868 C   0  0  0  0  0  0  0  0  0  0  0  0
    4.0598    2.2404   -0.3161 C   0  0  0  0  0  0  0  0  0  0  0  0
    4.8351    1.4473   -1.3577 C   0  0  0  0  0  0  0  0  0  0  0  0
    4.1633    0.1169   -1.6629 C   0  0  0  0  0  0  0  0  0  0  0  0
    3.9236   -0.7246   -0.4115 C   0  0  0  0  0  0  0  0  0  0  0  0
    1.5674   -0.3979    2.3850 C   0  0  0  0  0  0  0  0  0  0  0  0
    2.3407   -0.5274    3.3340 O   0  0  0  0  0  0  0  0  0  0  0  0
    0.2377   -0.5317    2.6276 N   0  0  0  0  0  0  0  0  0  0  0  0
   -0.7669   -0.4284    1.6670 C   0  0  0  0  0  0  0  0  0  0  0  0
   -2.1051   -0.6644    2.0300 C   0  0  0  0  0  0  0  0  0  0  0  0
   -2.4868   -0.9597    3.4575 C   0  0  0  0  0  0  0  0  0  0  0  0
   -1.0531    0.3091   -2.0932 C   0  0  0  0  0  0  0  0  0  0  0  0
   -2.1533    0.0327   -3.1146 C   0  0  0  0  0  0  0  0  0  0  0  0
   -3.5004    0.5343   -2.6275 C   0  0  2  0  0  0  0  0  0  0  0  0
   -3.4860    1.9528   -2.4733 O   0  0  0  0  0  0  0  0  0  0  0  0
   -3.8857   -0.1607   -1.3221 C   0  0  0  0  0  0  0  0  0  0  0  0
  1  2  1  0
  2  3  1  0
  3  4  2  0
  4  5  1  0
  5  6  2  0
  6  7  1  0
  7  8  2  0
  7  9  1  0
  9 10  1  0
 10 11  1  0
 11 12  1  0
 12 13  1  0
 13 14  1  0
 14 15  1  0
  9 16  1  0
 16 17  2  0
 16 18  1  0
 18 19  1  0
 19 20  2  0
 20 21  1  0
  5 22  1  0
 22 23  1  0
 23 24  1  0
 24 25  1  1
 24 26  1  0
 20  3  1  0
 26  4  1  0
 19  6  1  0
 15 10  1  0
M  END
