mol_3a32bc8e4588
     RDKit          3D

 26 30  0  0  0  0  0  0  0  0999 V2000
    5.2755    2.2334   -3.3308 O   0  0  0  0  0  0  0  0  0  0  0  0
    4.7525    1.2642   -3.8583 C   0  0  0  0  0  0  0  0  0  0  0  0
    4.1579    1.3830   -5.0636 O   0  0  0  0  0  0  0  0  0  0  0  0
    4.6446   -0.1366   -3.2771 C   0  0  0  0  0  0  0  0  0  0  0  0
    3.6129   -0.2832   -2.2332 N   0  0  0  0  0  0  0  0  0  0  0  0
    3.8578    0.5647   -1.0558 C   0  0  0  0  0  0  0  0  0  0  0  0
    2.9304    0.1636    0.0989 C   0  0  0  0  0  0  0  0  0  0  0  0
    1.5623   -0.0307   -0.3536 N   0  0  0  0  0  0  0  0  0  0  0  0
    1.2328   -0.1781   -1.6777 C   0  0  0  0  0  0  0  0  0  0  0  0
   -0.1277   -0.3951   -1.7318 C   0  0  0  0  0  0  0  0  0  0  0  0
   -0.6423   -0.3814   -0.3965 C   0  0  0  0  0  0  0  0  0  0  0  0
   -1.9376   -0.5585    0.1813 C   0  0  0  0  0  0  0  0  0  0  0  0
   -3.0373   -0.8070   -0.6670 C   0  0  0  0  0  0  0  0  0  0  0  0
   -4.2982   -1.0131   -0.1252 C   0  0  0  0  0  0  0  0  0  0  0  0
   -5.3823   -1.2570   -0.9162 O   0  0  0  0  0  0  0  0  0  0  0  0
   -4.4925   -0.9966    1.2472 C   0  0  0  0  0  0  0  0  0  0  0  0
   -3.4153   -0.7513    2.1152 C   0  0  0  0  0  0  0  0  0  0  0  0
   -2.1122   -0.4966    1.5914 C   0  0  0  0  0  0  0  0  0  0  0  0
   -0.9725   -0.1990    2.3775 C   0  0  0  0  0  0  0  0  0  0  0  0
    0.3099   -0.0617    1.8345 C   0  0  0  0  0  0  0  0  0  0  0  0
    0.4483   -0.1474    0.4459 C   0  0  0  0  0  0  0  0  0  0  0  0
   -1.0322   -0.0069    3.7437 O   0  0  0  0  0  0  0  0  0  0  0  0
   -1.9803    1.0143    4.0676 C   0  0  0  0  0  0  0  0  0  0  0  0
   -3.3502    0.4245    4.3724 C   0  0  0  0  0  0  0  0  0  0  0  0
   -3.6564   -0.8549    3.6037 C   0  0  0  0  0  0  0  0  0  0  0  0
    2.2574   -0.0672   -2.7602 C   0  0  0  0  0  0  0  0  0  0  0  0
  1  2  2  0
  2  3  1  0
  2  4  1  0
  4  5  1  0
  5  6  1  0
  6  7  1  0
  7  8  1  0
  8  9  1  0
  9 10  2  0
 10 11  1  0
 11 12  1  0
 12 13  2  0
 13 14  1  0
 14 15  1  0
 14 16  2  0
 16 17  1  0
 17 18  2  0
 18 19  1  0
 19 20  2  0
 20 21  1  0
 19 22  1  0
 22 23  1  0
 23 24  1  0
 24 25  1  0
  9 26  1  0
 26  5  1  0
 21  8  1  0
 21 11  2  0
 18 12  1  0
 25 17  1  0
M  END
