mol_4c37bf81d468
     RDKit          3D

 26 29  0  0  0  0  0  0  0  0999 V2000
   -2.2168   -0.2194   -3.6111 C   0  0  0  0  0  0  0  0  0  0  0  0
   -2.4317    0.0750   -2.1438 C   0  0  0  0  0  0  0  0  0  0  0  0
   -2.3623    1.2417   -1.7441 O   0  0  0  0  0  0  0  0  0  0  0  0
   -2.7426   -1.0144   -1.3290 N   0  0  0  0  0  0  0  0  0  0  0  0
   -3.6699   -1.9590   -1.7693 C   0  0  0  0  0  0  0  0  0  0  0  0
   -4.2307   -1.9464   -2.8645 O   0  0  0  0  0  0  0  0  0  0  0  0
   -4.0325   -3.0634   -0.8465 C   0  0  0  0  0  0  0  0  0  0  0  0
   -3.5314   -3.1288    0.3850 C   0  0  0  0  0  0  0  0  0  0  0  0
   -3.8573   -4.1407    1.2630 O   0  0  0  0  0  0  0  0  0  0  0  0
   -2.5924   -2.1190    0.8592 C   0  0  0  0  0  0  0  0  0  0  0  0
   -2.1223   -2.3143    2.1239 N   0  0  0  0  0  0  0  0  0  0  0  0
   -1.2072   -1.4257    2.5662 C   0  0  0  0  0  0  0  0  0  0  0  0
   -0.7500   -0.3537    1.8126 C   0  0  0  0  0  0  0  0  0  0  0  0
    0.3260    0.5726    2.3134 C   0  0  0  0  0  0  0  0  0  0  0  0
    1.7729    0.0787    2.0546 C   0  0  2  0  0  0  0  0  0  0  0  0
    2.7940    1.1779    2.4619 C   0  0  0  0  0  0  0  0  0  0  0  0
    3.3986    1.9679    1.2821 C   0  0  0  0  0  0  0  0  0  0  0  0
    2.4273    2.0614    0.1152 C   0  0  1  0  0  0  0  0  0  0  0  0
    2.9714    2.6535   -1.1737 C   0  0  0  0  0  0  0  0  0  0  0  0
    2.0433    2.0517   -2.2349 C   0  0  0  0  0  0  0  0  0  0  0  0
    1.7216    0.6906   -1.6592 C   0  0  0  0  0  0  0  0  0  0  0  0
    1.2796   -0.2652   -2.2734 O   0  0  0  0  0  0  0  0  0  0  0  0
    2.0001    0.7504   -0.3049 N   0  0  0  0  0  0  0  0  0  0  0  0
    2.0239   -0.3729    0.6079 C   0  0  0  0  0  0  0  0  0  0  0  0
   -1.2836   -0.1831    0.5251 C   0  0  0  0  0  0  0  0  0  0  0  0
   -2.2233   -1.0782    0.0104 C   0  0  0  0  0  0  0  0  0  0  0  0
  1  2  1  0
  2  3  2  0
  2  4  1  0
  4  5  1  0
  5  6  2  0
  5  7  1  0
  7  8  2  0
  8  9  1  0
  8 10  1  0
 10 11  1  0
 11 12  2  0
 12 13  1  0
 13 14  1  0
 15 14  1  6
 15 16  1  0
 16 17  1  0
 18 17  1  1
 18 19  1  0
 19 20  1  0
 20 21  1  0
 21 22  2  0
 21 23  1  0
 23 24  1  0
 13 25  2  0
 25 26  1  0
 26  4  1  0
 26 10  2  0
 24 15  1  0
 23 18  1  0
M  END
