mol_628bdb6d2e3e
     RDKit          3D

 22 23  0  0  0  0  0  0  0  0999 V2000
   -4.9306   -3.6119   -0.9196 C   0  0  0  0  0  0  0  0  0  0  0  0
   -3.7846   -2.6464   -0.8995 C   0  0  0  0  0  0  0  0  0  0  0  0
   -3.9924   -1.3201   -0.5409 C   0  0  0  0  0  0  0  0  0  0  0  0
   -2.9111   -0.4243   -0.5252 C   0  0  0  0  0  0  0  0  0  0  0  0
   -3.1778    1.0064   -0.1106 C   0  0  0  0  0  0  0  0  0  0  0  0
   -3.1002    1.1873    1.4044 C   0  0  0  0  0  0  0  0  0  0  0  0
   -3.3556    2.6339    1.8022 C   0  0  0  0  0  0  0  0  0  0  0  0
   -3.2764    2.7438    3.2161 O   0  0  0  0  0  0  0  0  0  0  0  0
   -1.6276   -0.8991   -0.8632 C   0  0  0  0  0  0  0  0  0  0  0  0
   -0.4252    0.0216   -0.8541 C   0  0  0  0  0  0  0  0  0  0  0  0
    0.9417   -0.5999   -1.1845 C   0  0  0  0  0  0  0  0  0  0  0  0
    2.0910    0.4327   -1.2017 C   0  0  2  0  0  0  0  0  0  0  0  0
    3.4024   -0.2171   -1.6902 C   0  0  0  0  0  0  0  0  0  0  0  0
    4.2928   -0.6596   -0.5342 C   0  0  0  0  0  0  0  0  0  0  0  0
    4.7210    0.5350    0.3327 C   0  0  2  0  0  0  0  0  0  0  0  0
    5.0428    0.0864    1.7420 C   0  0  0  0  0  0  0  0  0  0  0  0
    4.4930   -0.7943    2.3808 O   0  0  0  0  0  0  0  0  0  0  0  0
    6.0373    0.8089    2.2949 O   0  0  0  0  0  0  0  0  0  0  0  0
    3.6742    1.6581    0.3701 C   0  0  0  0  0  0  0  0  0  0  0  0
    2.2601    1.1212    0.1671 C   0  0  0  0  0  0  0  0  0  0  0  0
   -1.5325   -2.2481   -1.2061 C   0  0  0  0  0  0  0  0  0  0  0  0
   -2.5681   -3.1198   -1.2356 N   0  0  0  0  0  0  0  0  0  0  0  0
  1  2  1  0
  2  3  2  0
  3  4  1  0
  4  5  1  0
  5  6  1  0
  6  7  1  0
  7  8  1  0
  4  9  2  0
  9 10  1  0
 10 11  1  0
 12 11  1  1
 12 13  1  0
 13 14  1  0
 14 15  1  0
 15 16  1  1
 16 17  2  0
 16 18  1  0
 15 19  1  0
 19 20  1  0
  9 21  1  0
 21 22  2  0
 22  2  1  0
 20 12  1  0
M  END
