mol_6e313650e1b7
     RDKit          3D

 25 27  0  0  0  0  0  0  0  0999 V2000
    5.8727    0.3931   -1.6496 C   0  0  0  0  0  0  0  0  0  0  0  0
    5.5577   -0.5131   -0.4684 C   0  0  0  0  0  0  0  0  0  0  0  0
    4.4885    0.0753    0.4213 C   0  0  0  0  0  0  0  0  0  0  0  0
    4.7996    0.8867    1.5451 C   0  0  0  0  0  0  0  0  0  0  0  0
    6.2270    1.1781    1.9292 C   0  0  0  0  0  0  0  0  0  0  0  0
    3.7706    1.4190    2.3413 C   0  0  0  0  0  0  0  0  0  0  0  0
    2.4206    1.1904    2.0606 C   0  0  0  0  0  0  0  0  0  0  0  0
    2.1312    0.4007    0.9462 C   0  0  0  0  0  0  0  0  0  0  0  0
    3.1202   -0.1467    0.1375 C   0  0  0  0  0  0  0  0  0  0  0  0
    2.5593   -0.8705   -0.8887 N   0  0  0  0  0  0  0  0  0  0  0  0
    1.2540   -0.7785   -0.7353 C   0  0  0  0  0  0  0  0  0  0  0  0
    0.2452   -1.4033   -1.6427 C   0  0  0  0  0  0  0  0  0  0  0  0
   -0.0810   -2.8263   -1.2187 C   0  0  0  0  0  0  0  0  0  0  0  0
    0.9508   -0.0226    0.3764 N   0  0  0  0  0  0  0  0  0  0  0  0
   -0.3773    0.2660    0.8867 C   0  0  0  0  0  0  0  0  0  0  0  0
   -0.9633    1.5410    0.2880 C   0  0  0  0  0  0  0  0  0  0  0  0
   -2.3547    1.8518    0.8414 C   0  0  0  0  0  0  0  0  0  0  0  0
   -3.3248    0.7891    0.5741 N   0  0  0  0  0  0  0  0  0  0  0  0
   -3.8861    0.0951    1.7279 C   0  0  0  0  0  0  0  0  0  0  0  0
   -4.5964   -1.1995    1.3823 C   0  0  0  0  0  0  0  0  0  0  0  0
   -5.5663   -0.9478    0.2430 C   0  0  0  0  0  0  0  0  0  0  0  0
   -4.7879   -0.4920   -0.9865 C   0  0  1  0  0  0  0  0  0  0  0  0
   -5.7433   -0.1773   -2.1361 C   0  0  0  0  0  0  0  0  0  0  0  0
   -3.8615    0.6923   -0.7065 C   0  0  0  0  0  0  0  0  0  0  0  0
   -3.5227    1.4588   -1.6090 O   0  0  0  0  0  0  0  0  0  0  0  0
  1  2  1  0
  2  3  1  0
  3  4  2  0
  4  5  1  0
  4  6  1  0
  6  7  2  0
  7  8  1  0
  8  9  2  0
  9 10  1  0
 10 11  2  0
 11 12  1  0
 12 13  1  0
 11 14  1  0
 14 15  1  0
 15 16  1  0
 16 17  1  0
 17 18  1  0
 18 19  1  0
 19 20  1  0
 20 21  1  0
 21 22  1  0
 22 23  1  6
 22 24  1  0
 24 25  2  0
  9  3  1  0
 24 18  1  0
 14  8  1  0
M  END
