mol_ce816cceea6c
     RDKit          3D

 37 38  0  0  0  0  0  0  0  0999 V2000
    5.1254    2.9018   -1.1894 C   0  0  0  0  0  0  0  0  0  0  0  0
    4.2859    2.4133   -0.1419 O   0  0  0  0  0  0  0  0  0  0  0  0
    3.2603    1.6207   -0.5772 C   0  0  0  0  0  0  0  0  0  0  0  0
    3.0515    1.3382   -1.7483 O   0  0  0  0  0  0  0  0  0  0  0  0
    2.4436    1.1709    0.6157 C   0  0  0  0  0  0  0  0  0  0  0  0
    1.3052    0.2383    0.2692 C   0  0  0  0  0  0  0  0  0  0  0  0
    1.4820   -1.1510    0.3227 C   0  0  0  0  0  0  0  0  0  0  0  0
    0.4354   -2.0324    0.0031 C   0  0  0  0  0  0  0  0  0  0  0  0
    0.6888   -3.5143    0.0747 C   0  0  0  0  0  0  0  0  0  0  0  0
   -0.8056   -1.4991   -0.4010 C   0  0  0  0  0  0  0  0  0  0  0  0
   -0.9888   -0.1014   -0.4783 C   0  0  0  0  0  0  0  0  0  0  0  0
    0.0684    0.7533   -0.1354 C   0  0  0  0  0  0  0  0  0  0  0  0
   -2.3161    0.4861   -0.8982 C   0  0  0  0  0  0  0  0  0  0  0  0
   -3.4054    0.2605    0.1587 C   0  0  0  0  0  0  0  0  0  0  0  0
   -3.3171    1.2833    1.2679 C   0  0  0  0  0  0  0  0  0  0  0  0
   -2.6127    2.2781    1.3005 O   0  0  0  0  0  0  0  0  0  0  0  0
   -4.1820    1.0410    2.2726 O   0  0  0  0  0  0  0  0  0  0  0  0
   -3.3702   -1.1509    0.7423 C   0  0  0  0  0  0  0  0  0  0  0  0
   -3.1578   -2.1368   -0.2875 O   0  0  0  0  0  0  0  0  0  0  0  0
   -1.9223   -2.4120   -0.7855 C   0  0  0  0  0  0  0  0  0  0  0  0
   -1.7330   -3.3648   -1.5295 O   0  0  0  0  0  0  0  0  0  0  0  0
    5.9071    3.5183   -0.7370 H   0  0  0  0  0  0  0  0  0  0  0  0
    4.5508    3.5247   -1.8822 H   0  0  0  0  0  0  0  0  0  0  0  0
    5.6025    2.0704   -1.7177 H   0  0  0  0  0  0  0  0  0  0  0  0
    3.1147    0.6726    1.3258 H   0  0  0  0  0  0  0  0  0  0  0  0
    2.0394    2.0603    1.1139 H   0  0  0  0  0  0  0  0  0  0  0  0
    2.4506   -1.5556    0.6145 H   0  0  0  0  0  0  0  0  0  0  0  0
   -0.1292   -4.0251    0.5928 H   0  0  0  0  0  0  0  0  0  0  0  0
    0.8065   -3.9279   -0.9315 H   0  0  0  0  0  0  0  0  0  0  0  0
    1.6028   -3.7339    0.6375 H   0  0  0  0  0  0  0  0  0  0  0  0
   -0.0736    1.8328   -0.1877 H   0  0  0  0  0  0  0  0  0  0  0  0
   -2.6142    0.0240   -1.8489 H   0  0  0  0  0  0  0  0  0  0  0  0
   -2.2079    1.5542   -1.1255 H   0  0  0  0  0  0  0  0  0  0  0  0
   -4.3695    0.4255   -0.3400 H   0  0  0  0  0  0  0  0  0  0  0  0
   -4.0559    1.7939    2.8896 H   0  0  0  0  0  0  0  0  0  0  0  0
   -2.6234   -1.2701    1.5379 H   0  0  0  0  0  0  0  0  0  0  0  0
   -4.3363   -1.3867    1.2036 H   0  0  0  0  0  0  0  0  0  0  0  0
  1  2  1  0
  2  3  1  0
  3  4  2  0
  3  5  1  0
  5  6  1  0
  6  7  1  0
  7  8  2  0
  8  9  1  0
  8 10  1  0
 10 11  2  0
 11 12  1  0
 11 13  1  0
 13 14  1  0
 14 15  1  0
 15 16  2  0
 15 17  1  0
 14 18  1  0
 18 19  1  0
 19 20  1  0
 20 21  2  0
 12  6  2  0
 20 10  1  0
  1 22  1  0
  1 23  1  0
  1 24  1  0
  5 25  1  0
  5 26  1  0
  7 27  1  0
  9 28  1  0
  9 29  1  0
  9 30  1  0
 12 31  1  0
 13 32  1  0
 13 33  1  0
 14 34  1  0
 17 35  1  0
 18 36  1  0
 18 37  1  0
M  END
>  <smiles>
COC(=O)Cc1cc(C)c2c(c1)CC(C(=O)O)COC2=O

$$$$
