mol_72b73e6aac23
     RDKit          3D

 58 63  0  0  0  0  0  0  0  0999 V2000
   -6.0501    0.7496    0.1639 C   0  0  0  0  0  0  0  0  0  0  0  0
   -4.6319    0.2322    0.0425 C   0  0  0  0  0  0  0  0  0  0  0  0
   -3.5655    1.1452   -0.0255 C   0  0  0  0  0  0  0  0  0  0  0  0
   -2.2474    0.6946   -0.1296 C   0  0  0  0  0  0  0  0  0  0  0  0
   -1.9798   -0.6961   -0.1945 C   0  0  0  0  0  0  0  0  0  0  0  0
   -3.0404   -1.6490   -0.1072 C   0  0  0  0  0  0  0  0  0  0  0  0
   -2.8537   -3.0585   -0.1031 C   0  0  0  0  0  0  0  0  0  0  0  0
   -3.9129   -3.9627   -0.0158 C   0  0  0  0  0  0  0  0  0  0  0  0
   -5.2057   -3.4891    0.0790 C   0  0  0  0  0  0  0  0  0  0  0  0
   -5.4296   -2.1142    0.0932 C   0  0  0  0  0  0  0  0  0  0  0  0
   -4.3766   -1.1694    0.0076 C   0  0  0  0  0  0  0  0  0  0  0  0
   -0.5351   -1.1171   -0.3582 C   0  0  0  0  0  0  0  0  0  0  0  0
   -0.1996   -2.1998   -0.8229 O   0  0  0  0  0  0  0  0  0  0  0  0
    0.4106   -0.1867    0.0153 N   0  0  0  0  0  0  0  0  0  0  0  0
    1.8390   -0.4104   -0.0635 C   0  0  0  0  0  0  0  0  0  0  0  0
    2.4031   -0.3834   -1.4657 C   0  0  0  0  0  0  0  0  0  0  0  0
    3.6908    0.4206   -1.3421 C   0  0  0  0  0  0  0  0  0  0  0  0
    4.9887   -0.3779   -1.5010 C   0  0  0  0  0  0  0  0  0  0  0  0
    5.2252   -1.5752   -0.5694 C   0  0  0  0  0  0  0  0  0  0  0  0
    5.3087   -1.3032    0.9340 C   0  0  0  0  0  0  0  0  0  0  0  0
    6.1710   -0.1836    1.2837 N   0  0  0  0  0  0  0  0  0  0  0  0
    3.6758    1.1345   -0.0914 O   0  0  0  0  0  0  0  0  0  0  0  0
    2.4707    0.8010    0.6082 C   0  0  0  0  0  0  0  0  0  0  0  0
    1.4031    1.9087    0.4876 C   0  0  0  0  0  0  0  0  0  0  0  0
    1.5311    2.6177   -0.7476 O   0  0  0  0  0  0  0  0  0  0  0  0
    0.0837    1.1186    0.5697 C   0  0  0  0  0  0  0  0  0  0  0  0
   -1.1060    1.6934   -0.1927 C   0  0  0  0  0  0  0  0  0  0  0  0
   -1.5420    3.0462    0.3556 C   0  0  0  0  0  0  0  0  0  0  0  0
   -2.8620    3.4014   -0.2978 C   0  0  0  0  0  0  0  0  0  0  0  0
   -3.8861    2.4770    0.0661 O   0  0  0  0  0  0  0  0  0  0  0  0
   -6.1178    1.8408    0.1389 H   0  0  0  0  0  0  0  0  0  0  0  0
   -6.6579    0.3827   -0.6701 H   0  0  0  0  0  0  0  0  0  0  0  0
   -6.4884    0.4241    1.1132 H   0  0  0  0  0  0  0  0  0  0  0  0
   -1.8594   -3.4940   -0.1626 H   0  0  0  0  0  0  0  0  0  0  0  0
   -3.7159   -5.0314   -0.0223 H   0  0  0  0  0  0  0  0  0  0  0  0
   -6.0409   -4.1805    0.1468 H   0  0  0  0  0  0  0  0  0  0  0  0
   -6.4642   -1.7889    0.1780 H   0  0  0  0  0  0  0  0  0  0  0  0
    2.0975   -1.3477    0.4405 H   0  0  0  0  0  0  0  0  0  0  0  0
    1.7189    0.1334   -2.1513 H   0  0  0  0  0  0  0  0  0  0  0  0
    2.5501   -1.3843   -1.8833 H   0  0  0  0  0  0  0  0  0  0  0  0
    3.6983    1.1846   -2.1299 H   0  0  0  0  0  0  0  0  0  0  0  0
    5.0269   -0.7552   -2.5315 H   0  0  0  0  0  0  0  0  0  0  0  0
    5.8356    0.3124   -1.4001 H   0  0  0  0  0  0  0  0  0  0  0  0
    4.4514   -2.3324   -0.7431 H   0  0  0  0  0  0  0  0  0  0  0  0
    6.1707   -2.0410   -0.8791 H   0  0  0  0  0  0  0  0  0  0  0  0
    5.6910   -2.2027    1.4299 H   0  0  0  0  0  0  0  0  0  0  0  0
    4.3147   -1.1340    1.3526 H   0  0  0  0  0  0  0  0  0  0  0  0
    5.7435    0.6770    0.9313 H   0  0  0  0  0  0  0  0  0  0  0  0
    7.0638   -0.2708    0.8007 H   0  0  0  0  0  0  0  0  0  0  0  0
    2.6870    0.6058    1.6644 H   0  0  0  0  0  0  0  0  0  0  0  0
    1.4886    2.6452    1.2926 H   0  0  0  0  0  0  0  0  0  0  0  0
    2.4859    2.8074   -0.8387 H   0  0  0  0  0  0  0  0  0  0  0  0
   -0.1675    0.9409    1.6251 H   0  0  0  0  0  0  0  0  0  0  0  0
   -0.8558    1.8045   -1.2579 H   0  0  0  0  0  0  0  0  0  0  0  0
   -1.6731    2.9918    1.4440 H   0  0  0  0  0  0  0  0  0  0  0  0
   -0.7930    3.8162    0.1442 H   0  0  0  0  0  0  0  0  0  0  0  0
   -2.7821    3.4403   -1.3912 H   0  0  0  0  0  0  0  0  0  0  0  0
   -3.1850    4.3918    0.0396 H   0  0  0  0  0  0  0  0  0  0  0  0
  1  2  1  0
  2  3  2  0
  3  4  1  0
  4  5  2  0
  5  6  1  0
  6  7  2  0
  7  8  1  0
  8  9  2  0
  9 10  1  0
 10 11  2  0
  5 12  1  0
 12 13  2  0
 12 14  1  0
 14 15  1  0
 15 16  1  0
 16 17  1  0
 17 18  1  0
 18 19  1  0
 19 20  1  0
 20 21  1  0
 17 22  1  0
 22 23  1  0
 23 24  1  0
 24 25  1  0
 24 26  1  0
 26 27  1  0
 27 28  1  0
 28 29  1  0
 29 30  1  0
 11  2  1  0
 26 14  1  0
 30  3  1  0
 27  4  1  0
 11  6  1  0
 23 15  1  0
  1 31  1  0
  1 32  1  0
  1 33  1  0
  7 34  1  0
  8 35  1  0
  9 36  1  0
 10 37  1  0
 15 38  1  0
 16 39  1  0
 16 40  1  0
 17 41  1  0
 18 42  1  0
 18 43  1  0
 19 44  1  0
 19 45  1  0
 20 46  1  0
 20 47  1  0
 21 48  1  0
 21 49  1  0
 23 50  1  0
 24 51  1  0
 25 52  1  0
 26 53  1  0
 27 54  1  0
 28 55  1  0
 28 56  1  0
 29 57  1  0
 29 58  1  0
M  END
>  <smiles>
Cc1c2c3c(c4ccccc14)C(=O)N1C4CC(CCCN)OC4C(O)C1C3CCO2

$$$$
