mol_249e9cd06d9b
     RDKit          3D

 63 63  0  0  0  0  0  0  0  0999 V2000
   -1.6674   -1.9805    3.4156 C   0  0  0  0  0  0  0  0  0  0  0  0
   -2.0998   -0.5314    3.2541 C   0  0  0  0  0  0  0  0  0  0  0  0
   -1.2267    0.2633    2.2741 C   0  0  0  0  0  0  0  0  0  0  0  0
   -1.2514   -0.2154    0.8369 C   0  0  0  0  0  0  0  0  0  0  0  0
   -2.3894   -0.2910    0.1174 C   0  0  0  0  0  0  0  0  0  0  0  0
   -2.5436   -0.6990   -1.3253 C   0  0  0  0  0  0  0  0  0  0  0  0
   -3.5150   -1.8799   -1.5154 C   0  0  0  0  0  0  0  0  0  0  0  0
   -2.9964   -3.1655   -0.8672 C   0  0  0  0  0  0  0  0  0  0  0  0
   -3.7608   -2.1167   -3.0074 C   0  0  0  0  0  0  0  0  0  0  0  0
    0.0625   -0.5428    0.2496 C   0  0  0  0  0  0  0  0  0  0  0  0
    0.4722   -1.8879    0.2661 C   0  0  0  0  0  0  0  0  0  0  0  0
    1.6983   -2.2706   -0.2778 C   0  0  0  0  0  0  0  0  0  0  0  0
    2.5355   -1.3022   -0.8316 C   0  0  0  0  0  0  0  0  0  0  0  0
    3.8341   -1.6786   -1.4344 C   0  0  0  0  0  0  0  0  0  0  0  0
    4.0270   -1.3584   -2.6053 O   0  0  0  0  0  0  0  0  0  0  0  0
    4.7634   -2.3715   -0.6611 N   0  0  0  0  0  0  0  0  0  0  0  0
    4.6890   -2.5390    0.7835 C   0  0  0  0  0  0  0  0  0  0  0  0
    5.9448   -2.9123   -1.3106 C   0  0  0  0  0  0  0  0  0  0  0  0
    2.1293    0.0344   -0.8843 C   0  0  0  0  0  0  0  0  0  0  0  0
    0.8929    0.4333   -0.3418 C   0  0  0  0  0  0  0  0  0  0  0  0
    0.5179    1.8989   -0.4192 C   0  0  0  0  0  0  0  0  0  0  0  0
    1.2242    2.7286    0.6597 C   0  0  0  0  0  0  0  0  0  0  0  0
    0.9483    4.2237    0.5089 C   0  0  0  0  0  0  0  0  0  0  0  0
   -0.4603    4.6249    0.9047 C   0  0  0  0  0  0  0  0  0  0  0  0
   -1.2172    3.9099    1.5506 O   0  0  0  0  0  0  0  0  0  0  0  0
   -0.7925    5.8970    0.4914 N   0  0  0  0  0  0  0  0  0  0  0  0
   -2.0855    6.4582    0.7857 C   0  0  0  0  0  0  0  0  0  0  0  0
   -1.8263   -2.5496    2.4957 H   0  0  0  0  0  0  0  0  0  0  0  0
   -0.6098   -2.0484    3.6892 H   0  0  0  0  0  0  0  0  0  0  0  0
   -2.2530   -2.4608    4.2060 H   0  0  0  0  0  0  0  0  0  0  0  0
   -3.1520   -0.4980    2.9493 H   0  0  0  0  0  0  0  0  0  0  0  0
   -2.0460   -0.0422    4.2345 H   0  0  0  0  0  0  0  0  0  0  0  0
   -1.5542    1.3103    2.2909 H   0  0  0  0  0  0  0  0  0  0  0  0
   -0.1978    0.2693    2.6575 H   0  0  0  0  0  0  0  0  0  0  0  0
   -3.3191    0.0076    0.6004 H   0  0  0  0  0  0  0  0  0  0  0  0
   -1.5808   -0.9403   -1.7887 H   0  0  0  0  0  0  0  0  0  0  0  0
   -2.9311    0.1733   -1.8674 H   0  0  0  0  0  0  0  0  0  0  0  0
   -4.4781   -1.6284   -1.0524 H   0  0  0  0  0  0  0  0  0  0  0  0
   -2.0209   -3.4503   -1.2755 H   0  0  0  0  0  0  0  0  0  0  0  0
   -3.6900   -3.9948   -1.0438 H   0  0  0  0  0  0  0  0  0  0  0  0
   -2.8937   -3.0522    0.2161 H   0  0  0  0  0  0  0  0  0  0  0  0
   -4.1726   -1.2193   -3.4811 H   0  0  0  0  0  0  0  0  0  0  0  0
   -2.8328   -2.3793   -3.5268 H   0  0  0  0  0  0  0  0  0  0  0  0
   -4.4766   -2.9316   -3.1595 H   0  0  0  0  0  0  0  0  0  0  0  0
   -0.1756   -2.6489    0.6951 H   0  0  0  0  0  0  0  0  0  0  0  0
    1.9877   -3.3175   -0.2780 H   0  0  0  0  0  0  0  0  0  0  0  0
    3.9600   -1.8680    1.2411 H   0  0  0  0  0  0  0  0  0  0  0  0
    4.4224   -3.5774    0.9997 H   0  0  0  0  0  0  0  0  0  0  0  0
    5.6692   -2.3196    1.2183 H   0  0  0  0  0  0  0  0  0  0  0  0
    5.8798   -2.8505   -2.4000 H   0  0  0  0  0  0  0  0  0  0  0  0
    6.0562   -3.9623   -1.0240 H   0  0  0  0  0  0  0  0  0  0  0  0
    6.8192   -2.3473   -0.9745 H   0  0  0  0  0  0  0  0  0  0  0  0
    2.7821    0.7666   -1.3566 H   0  0  0  0  0  0  0  0  0  0  0  0
   -0.5669    2.0305   -0.3579 H   0  0  0  0  0  0  0  0  0  0  0  0
    0.7944    2.2724   -1.4144 H   0  0  0  0  0  0  0  0  0  0  0  0
    0.9277    2.3832    1.6572 H   0  0  0  0  0  0  0  0  0  0  0  0
    2.3083    2.5743    0.5880 H   0  0  0  0  0  0  0  0  0  0  0  0
    1.6322    4.7804    1.1612 H   0  0  0  0  0  0  0  0  0  0  0  0
    1.1441    4.5435   -0.5212 H   0  0  0  0  0  0  0  0  0  0  0  0
   -0.1193    6.4524   -0.0200 H   0  0  0  0  0  0  0  0  0  0  0  0
   -2.8656    5.8028    0.3888 H   0  0  0  0  0  0  0  0  0  0  0  0
   -2.2006    6.5459    1.8694 H   0  0  0  0  0  0  0  0  0  0  0  0
   -2.1543    7.4447    0.3219 H   0  0  0  0  0  0  0  0  0  0  0  0
  1  2  1  0
  2  3  1  0
  3  4  1  0
  4  5  2  3
  5  6  1  0
  6  7  1  0
  7  8  1  0
  7  9  1  0
  4 10  1  0
 10 11  1  0
 11 12  2  0
 12 13  1  0
 13 14  1  0
 14 15  2  0
 14 16  1  0
 16 17  1  0
 16 18  1  0
 13 19  2  0
 19 20  1  0
 20 21  1  0
 21 22  1  0
 22 23  1  0
 23 24  1  0
 24 25  2  0
 24 26  1  0
 26 27  1  0
 20 10  2  0
  1 28  1  0
  1 29  1  0
  1 30  1  0
  2 31  1  0
  2 32  1  0
  3 33  1  0
  3 34  1  0
  5 35  1  0
  6 36  1  0
  6 37  1  0
  7 38  1  0
  8 39  1  0
  8 40  1  0
  8 41  1  0
  9 42  1  0
  9 43  1  0
  9 44  1  0
 11 45  1  0
 12 46  1  0
 17 47  1  0
 17 48  1  0
 17 49  1  0
 18 50  1  0
 18 51  1  0
 18 52  1  0
 19 53  1  0
 21 54  1  0
 21 55  1  0
 22 56  1  0
 22 57  1  0
 23 58  1  0
 23 59  1  0
 26 60  1  0
 27 61  1  0
 27 62  1  0
 27 63  1  0
M  END
>  <smiles>
CCCC(=CCC(C)C)c1ccc(C(=O)N(C)C)cc1CCCC(=O)NC

$$$$
