mol_542c7e8f9a52
     RDKit          3D

 44 48  0  0  0  0  0  0  0  0999 V2000
   -3.0993    2.8803   -0.1422 N   0  0  0  0  0  0  0  0  0  0  0  0
   -3.4342    2.3934   -1.3719 C   0  0  0  0  0  0  0  0  0  0  0  0
   -4.4150    2.8175   -1.9738 O   0  0  0  0  0  0  0  0  0  0  0  0
   -2.5182    1.3214   -1.9244 C   0  0  0  0  0  0  0  0  0  0  0  0
   -2.7726   -0.0323   -1.3005 C   0  0  0  0  0  0  0  0  0  0  0  0
   -3.7962   -0.8426   -1.8298 C   0  0  0  0  0  0  0  0  0  0  0  0
   -4.1196   -2.0605   -1.2347 C   0  0  0  0  0  0  0  0  0  0  0  0
   -3.4052   -2.4656   -0.1179 C   0  0  0  0  0  0  0  0  0  0  0  0
   -2.3552   -1.7028    0.4027 C   0  0  0  0  0  0  0  0  0  0  0  0
   -2.0517   -0.4740   -0.1712 C   0  0  0  0  0  0  0  0  0  0  0  0
   -1.1936    0.4182    0.4181 O   0  0  0  0  0  0  0  0  0  0  0  0
    0.0867   -0.0192    0.6166 C   0  0  0  0  0  0  0  0  0  0  0  0
    1.0923    0.7535    0.0151 C   0  0  0  0  0  0  0  0  0  0  0  0
    2.4504    0.4612    0.2092 C   0  0  0  0  0  0  0  0  0  0  0  0
    3.5049    1.3071   -0.4623 C   0  0  0  0  0  0  0  0  0  0  0  0
    4.4554    2.0090    0.4930 C   0  0  0  0  0  0  0  0  0  0  0  0
    5.6472    2.1283   -0.3959 C   0  0  0  0  0  0  0  0  0  0  0  0
    5.6987    1.3616   -1.4377 N   0  0  0  0  0  0  0  0  0  0  0  0
    4.4640    0.5464   -1.3825 C   0  0  0  0  0  0  0  0  0  0  0  0
    2.7819   -0.6134    1.0413 C   0  0  0  0  0  0  0  0  0  0  0  0
    1.7805   -1.3688    1.6583 C   0  0  0  0  0  0  0  0  0  0  0  0
    0.4221   -1.0796    1.4483 C   0  0  0  0  0  0  0  0  0  0  0  0
   -0.5631   -1.9322    2.1524 C   0  0  0  0  0  0  0  0  0  0  0  0
   -0.2314   -2.4196    3.2349 O   0  0  0  0  0  0  0  0  0  0  0  0
   -1.7518   -2.2775    1.5395 N   0  0  0  0  0  0  0  0  0  0  0  0
   -2.4782   -3.4360    2.0533 C   0  0  0  0  0  0  0  0  0  0  0  0
   -3.7141   -3.9280    0.8237 S   0  0  0  0  0  0  0  0  0  0  0  0
   -2.3426    2.4988    0.4101 H   0  0  0  0  0  0  0  0  0  0  0  0
   -3.6922    3.5922    0.2639 H   0  0  0  0  0  0  0  0  0  0  0  0
   -1.4757    1.6299   -1.7884 H   0  0  0  0  0  0  0  0  0  0  0  0
   -2.6675    1.2644   -3.0099 H   0  0  0  0  0  0  0  0  0  0  0  0
   -4.3714   -0.5057   -2.6920 H   0  0  0  0  0  0  0  0  0  0  0  0
   -4.9311   -2.6660   -1.6282 H   0  0  0  0  0  0  0  0  0  0  0  0
    0.8036    1.5960   -0.6107 H   0  0  0  0  0  0  0  0  0  0  0  0
    3.0130    2.0810   -1.0702 H   0  0  0  0  0  0  0  0  0  0  0  0
    4.7321    1.4352    1.3819 H   0  0  0  0  0  0  0  0  0  0  0  0
    4.0954    2.9957    0.7953 H   0  0  0  0  0  0  0  0  0  0  0  0
    6.4566    2.8274   -0.1385 H   0  0  0  0  0  0  0  0  0  0  0  0
    4.0375    0.4411   -2.3860 H   0  0  0  0  0  0  0  0  0  0  0  0
    4.7168   -0.4553   -1.0177 H   0  0  0  0  0  0  0  0  0  0  0  0
    3.8220   -0.8758    1.2277 H   0  0  0  0  0  0  0  0  0  0  0  0
    2.0677   -2.1935    2.3099 H   0  0  0  0  0  0  0  0  0  0  0  0
   -2.9652   -3.1517    2.9921 H   0  0  0  0  0  0  0  0  0  0  0  0
   -1.7838   -4.2598    2.2481 H   0  0  0  0  0  0  0  0  0  0  0  0
  1  2  1  0
  2  3  2  0
  2  4  1  0
  4  5  1  0
  5  6  1  0
  6  7  2  0
  7  8  1  0
  8  9  2  0
  9 10  1  0
 10 11  1  0
 11 12  1  0
 12 13  1  0
 13 14  2  0
 14 15  1  0
 15 16  1  0
 16 17  1  0
 17 18  2  0
 18 19  1  0
 14 20  1  0
 20 21  2  0
 21 22  1  0
 22 23  1  0
 23 24  2  0
 23 25  1  0
 25 26  1  0
 26 27  1  0
 10  5  2  0
 22 12  2  0
 27  8  1  0
 25  9  1  0
 19 15  1  0
  1 28  1  0
  1 29  1  0
  4 30  1  0
  4 31  1  0
  6 32  1  0
  7 33  1  0
 13 34  1  0
 15 35  1  0
 16 36  1  0
 16 37  1  0
 17 38  1  0
 19 39  1  0
 19 40  1  0
 20 41  1  0
 21 42  1  0
 26 43  1  0
 26 44  1  0
M  END
>  <smiles>
NC(=O)Cc1ccc2c3c1Oc1cc(C4CC=NC4)ccc1C(=O)N3CS2

$$$$
