mol_8c56a2c05527
     RDKit          3D

 51 53  0  0  0  0  0  0  0  0999 V2000
    1.2469    3.4797    1.3535 O   0  0  0  0  0  0  0  0  0  0  0  0
    1.0219    2.4149    0.7915 C   0  0  0  0  0  0  0  0  0  0  0  0
   -0.2131    1.8090    0.6081 N   0  0  0  0  0  0  0  0  0  0  0  0
   -1.4892    2.3899    0.8107 C   0  0  0  0  0  0  0  0  0  0  0  0
   -1.6405    3.7629    1.0497 C   0  0  0  0  0  0  0  0  0  0  0  0
   -2.9048    4.3417    1.1869 C   0  0  0  0  0  0  0  0  0  0  0  0
   -4.0436    3.5560    1.0822 C   0  0  0  0  0  0  0  0  0  0  0  0
   -3.9158    2.1888    0.8518 C   0  0  0  0  0  0  0  0  0  0  0  0
   -2.6476    1.5849    0.7232 C   0  0  0  0  0  0  0  0  0  0  0  0
   -2.6152    0.0813    0.5409 C   0  0  0  0  0  0  0  0  0  0  0  0
   -2.4118   -0.3569   -0.9123 C   0  0  0  0  0  0  0  0  0  0  0  0
   -2.7339   -1.8403   -1.1631 C   0  0  0  0  0  0  0  0  0  0  0  0
   -2.1606   -2.8329   -0.1443 C   0  0  0  0  0  0  0  0  0  0  0  0
   -0.7329   -2.6389    0.0962 N   0  0  0  0  0  0  0  0  0  0  0  0
    0.1073   -3.3198   -0.8916 C   0  0  0  0  0  0  0  0  0  0  0  0
    1.5117   -2.7081   -0.9074 C   0  0  0  0  0  0  0  0  0  0  0  0
    2.2348   -2.7554    0.4477 C   0  0  0  0  0  0  0  0  0  0  0  0
    3.5401   -1.9454    0.4603 C   0  0  0  0  0  0  0  0  0  0  0  0
    3.3813   -0.4792    0.1192 C   0  0  0  0  0  0  0  0  0  0  0  0
    4.2901    0.1286   -0.7591 C   0  0  0  0  0  0  0  0  0  0  0  0
    4.1390    1.4657   -1.1340 C   0  0  0  0  0  0  0  0  0  0  0  0
    3.0711    2.2105   -0.6359 C   0  0  0  0  0  0  0  0  0  0  0  0
    2.8938    3.4942   -1.0678 O   0  0  0  0  0  0  0  0  0  0  0  0
    2.1679    1.6312    0.2606 C   0  0  0  0  0  0  0  0  0  0  0  0
    2.3408    0.2967    0.6567 C   0  0  0  0  0  0  0  0  0  0  0  0
   -0.2057    0.8608    0.2576 H   0  0  0  0  0  0  0  0  0  0  0  0
   -0.7820    4.4251    1.1112 H   0  0  0  0  0  0  0  0  0  0  0  0
   -2.9901    5.4100    1.3664 H   0  0  0  0  0  0  0  0  0  0  0  0
   -5.0278    4.0045    1.1839 H   0  0  0  0  0  0  0  0  0  0  0  0
   -4.8193    1.5863    0.7826 H   0  0  0  0  0  0  0  0  0  0  0  0
   -1.8384   -0.3349    1.1929 H   0  0  0  0  0  0  0  0  0  0  0  0
   -3.5573   -0.3406    0.9160 H   0  0  0  0  0  0  0  0  0  0  0  0
   -1.3801   -0.1563   -1.2238 H   0  0  0  0  0  0  0  0  0  0  0  0
   -3.0465    0.2430   -1.5772 H   0  0  0  0  0  0  0  0  0  0  0  0
   -2.3921   -2.1020   -2.1718 H   0  0  0  0  0  0  0  0  0  0  0  0
   -3.8248   -1.9609   -1.1716 H   0  0  0  0  0  0  0  0  0  0  0  0
   -2.3767   -3.8634   -0.4516 H   0  0  0  0  0  0  0  0  0  0  0  0
   -2.6857   -2.6916    0.8080 H   0  0  0  0  0  0  0  0  0  0  0  0
   -0.5088   -3.0197    1.0169 H   0  0  0  0  0  0  0  0  0  0  0  0
   -0.3106   -3.2194   -1.8999 H   0  0  0  0  0  0  0  0  0  0  0  0
    0.1613   -4.3904   -0.6627 H   0  0  0  0  0  0  0  0  0  0  0  0
    1.4210   -1.6746   -1.2612 H   0  0  0  0  0  0  0  0  0  0  0  0
    2.1192   -3.2357   -1.6531 H   0  0  0  0  0  0  0  0  0  0  0  0
    2.4648   -3.8001    0.6912 H   0  0  0  0  0  0  0  0  0  0  0  0
    1.5869   -2.3929    1.2521 H   0  0  0  0  0  0  0  0  0  0  0  0
    3.9991   -2.0156    1.4540 H   0  0  0  0  0  0  0  0  0  0  0  0
    4.2402   -2.4145   -0.2427 H   0  0  0  0  0  0  0  0  0  0  0  0
    5.1172   -0.4436   -1.1756 H   0  0  0  0  0  0  0  0  0  0  0  0
    4.8463    1.9001   -1.8344 H   0  0  0  0  0  0  0  0  0  0  0  0
    3.7006    3.8032   -1.5090 H   0  0  0  0  0  0  0  0  0  0  0  0
    1.6514   -0.1363    1.3776 H   0  0  0  0  0  0  0  0  0  0  0  0
  1  2  2  0
  2  3  1  0
  3  4  1  0
  4  5  2  0
  5  6  1  0
  6  7  2  0
  7  8  1  0
  8  9  2  0
  9 10  1  0
 10 11  1  0
 11 12  1  0
 12 13  1  0
 13 14  1  0
 14 15  1  0
 15 16  1  0
 16 17  1  0
 17 18  1  0
 18 19  1  0
 19 20  1  0
 20 21  2  0
 21 22  1  0
 22 23  1  0
 22 24  2  0
 24 25  1  0
 24  2  1  0
  9  4  1  0
 25 19  2  0
  3 26  1  0
  5 27  1  0
  6 28  1  0
  7 29  1  0
  8 30  1  0
 10 31  1  0
 10 32  1  0
 11 33  1  0
 11 34  1  0
 12 35  1  0
 12 36  1  0
 13 37  1  0
 13 38  1  0
 14 39  1  0
 15 40  1  0
 15 41  1  0
 16 42  1  0
 16 43  1  0
 17 44  1  0
 17 45  1  0
 18 46  1  0
 18 47  1  0
 20 48  1  0
 21 49  1  0
 23 50  1  0
 25 51  1  0
M  END
>  <smiles>
O=C1Nc2ccccc2CCCCNCCCCc2ccc(O)c1c2

$$$$
