mol_e0096060f67a
     RDKit          3D

 44 46  0  0  0  0  0  0  0  0999 V2000
   -3.7849    2.5041   -1.1136 C   0  0  0  0  0  0  0  0  0  0  0  0
   -4.3482    1.8191    0.0896 C   0  0  0  0  0  0  0  0  0  0  0  0
   -3.7939    0.8467    0.8324 C   0  0  0  0  0  0  0  0  0  0  0  0
   -2.4986    0.2704    0.6949 C   0  0  0  0  0  0  0  0  0  0  0  0
   -1.2725    0.9072    0.3740 C   0  0  0  0  0  0  0  0  0  0  0  0
   -0.2929   -0.0672    0.3700 C   0  0  0  0  0  0  0  0  0  0  0  0
    1.1504   -0.0883    0.1190 C   0  0  0  0  0  0  0  0  0  0  0  0
    1.7715   -1.2991   -0.2441 C   0  0  0  0  0  0  0  0  0  0  0  0
    3.1454   -1.3814   -0.4968 C   0  0  0  0  0  0  0  0  0  0  0  0
    3.5900   -2.6305   -0.8329 O   0  0  0  0  0  0  0  0  0  0  0  0
    4.9836   -2.7732   -1.0800 C   0  0  0  0  0  0  0  0  0  0  0  0
    3.9251   -0.2343   -0.3994 C   0  0  0  0  0  0  0  0  0  0  0  0
    3.3318    0.9803   -0.0528 C   0  0  0  0  0  0  0  0  0  0  0  0
    1.9570    1.0587    0.2279 C   0  0  0  0  0  0  0  0  0  0  0  0
    1.3705    2.2427    0.6134 O   0  0  0  0  0  0  0  0  0  0  0  0
    2.3318    3.2059    1.0525 C   0  0  0  0  0  0  0  0  0  0  0  0
    3.4691    3.2973    0.0547 C   0  0  0  0  0  0  0  0  0  0  0  0
    4.1823    2.0590    0.0014 O   0  0  0  0  0  0  0  0  0  0  0  0
   -0.8626   -1.2716    0.6840 O   0  0  0  0  0  0  0  0  0  0  0  0
   -2.1965   -1.0612    0.8982 C   0  0  0  0  0  0  0  0  0  0  0  0
   -2.9976   -2.2713    1.2520 C   0  0  0  0  0  0  0  0  0  0  0  0
   -2.2043   -3.0720    2.1326 O   0  0  0  0  0  0  0  0  0  0  0  0
   -3.3732   -3.0813    0.0026 C   0  0  0  0  0  0  0  0  0  0  0  0
   -4.3407   -2.4153   -0.8089 O   0  0  0  0  0  0  0  0  0  0  0  0
   -2.9297    1.9809   -1.5472 H   0  0  0  0  0  0  0  0  0  0  0  0
   -4.5528    2.5595   -1.8923 H   0  0  0  0  0  0  0  0  0  0  0  0
   -3.4853    3.5249   -0.8589 H   0  0  0  0  0  0  0  0  0  0  0  0
   -5.3516    2.1436    0.3641 H   0  0  0  0  0  0  0  0  0  0  0  0
   -4.4099    0.4456    1.6380 H   0  0  0  0  0  0  0  0  0  0  0  0
   -1.1160    1.9570    0.1707 H   0  0  0  0  0  0  0  0  0  0  0  0
    1.1783   -2.2072   -0.3390 H   0  0  0  0  0  0  0  0  0  0  0  0
    5.2947   -2.1725   -1.9410 H   0  0  0  0  0  0  0  0  0  0  0  0
    5.1745   -3.8235   -1.3204 H   0  0  0  0  0  0  0  0  0  0  0  0
    5.5702   -2.5233   -0.1897 H   0  0  0  0  0  0  0  0  0  0  0  0
    4.9918   -0.2459   -0.5943 H   0  0  0  0  0  0  0  0  0  0  0  0
    2.6879    2.9189    2.0496 H   0  0  0  0  0  0  0  0  0  0  0  0
    1.8211    4.1703    1.1361 H   0  0  0  0  0  0  0  0  0  0  0  0
    4.1770    4.0762    0.3549 H   0  0  0  0  0  0  0  0  0  0  0  0
    3.1048    3.5342   -0.9525 H   0  0  0  0  0  0  0  0  0  0  0  0
   -3.9038   -1.9795    1.7926 H   0  0  0  0  0  0  0  0  0  0  0  0
   -1.2766   -2.9467    1.8564 H   0  0  0  0  0  0  0  0  0  0  0  0
   -3.8009   -4.0441    0.3031 H   0  0  0  0  0  0  0  0  0  0  0  0
   -2.4946   -3.3081   -0.6127 H   0  0  0  0  0  0  0  0  0  0  0  0
   -3.9217   -1.6049   -1.1513 H   0  0  0  0  0  0  0  0  0  0  0  0
  1  2  1  0
  2  3  2  3
  3  4  1  0
  4  5  1  0
  5  6  2  0
  6  7  1  0
  7  8  2  0
  8  9  1  0
  9 10  1  0
 10 11  1  0
  9 12  2  0
 12 13  1  0
 13 14  2  0
 14 15  1  0
 15 16  1  0
 16 17  1  0
 17 18  1  0
  6 19  1  0
 19 20  1  0
 20 21  1  0
 21 22  1  0
 21 23  1  0
 23 24  1  0
 20  4  2  0
 14  7  1  0
 18 13  1  0
  1 25  1  0
  1 26  1  0
  1 27  1  0
  2 28  1  0
  3 29  1  0
  5 30  1  0
  8 31  1  0
 11 32  1  0
 11 33  1  0
 11 34  1  0
 12 35  1  0
 16 36  1  0
 16 37  1  0
 17 38  1  0
 17 39  1  0
 21 40  1  0
 22 41  1  0
 23 42  1  0
 23 43  1  0
 24 44  1  0
M  END
>  <smiles>
CC=Cc1cc(-c2cc(OC)cc3c2OCCO3)oc1C(O)CO

$$$$
