mol_9fb1eeaacd58
     RDKit          3D

 51 54  0  0  0  0  0  0  0  0999 V2000
    6.2646    0.5184   -2.0213 C   0  0  0  0  0  0  0  0  0  0  0  0
    4.9651    0.2916   -1.4108 N   0  0  0  0  0  0  0  0  0  0  0  0
    4.2723    1.5336   -1.0537 C   0  0  0  0  0  0  0  0  0  0  0  0
    3.2628    1.0940    0.0020 C   0  0  0  0  0  0  0  0  0  0  0  0
    2.0421    0.3909   -0.5999 C   0  0  0  0  0  0  0  0  0  0  0  0
    1.3126   -0.3977    0.4001 N   0  0  0  0  0  0  0  0  0  0  0  0
    0.5288    0.4272    1.3292 C   0  0  0  0  0  0  0  0  0  0  0  0
   -0.4998   -0.3402    2.1833 C   0  0  0  0  0  0  0  0  0  0  0  0
   -1.6299   -0.9451    1.3840 C   0  0  0  0  0  0  0  0  0  0  0  0
   -1.6028   -2.2943    1.0170 C   0  0  0  0  0  0  0  0  0  0  0  0
   -2.6478   -2.8442    0.2769 C   0  0  0  0  0  0  0  0  0  0  0  0
   -3.7297   -2.0491   -0.1059 C   0  0  0  0  0  0  0  0  0  0  0  0
   -3.7848   -0.6903    0.2400 C   0  0  0  0  0  0  0  0  0  0  0  0
   -4.9209    0.1507   -0.1699 C   0  0  0  0  0  0  0  0  0  0  0  0
   -6.2401   -0.2064    0.1547 C   0  0  0  0  0  0  0  0  0  0  0  0
   -7.3191    0.5925   -0.2334 C   0  0  0  0  0  0  0  0  0  0  0  0
   -7.0961    1.7626   -0.9550 C   0  0  0  0  0  0  0  0  0  0  0  0
   -5.7960    2.1343   -1.2883 C   0  0  0  0  0  0  0  0  0  0  0  0
   -4.7182    1.3348   -0.8982 C   0  0  0  0  0  0  0  0  0  0  0  0
   -2.7212   -0.1544    0.9872 C   0  0  0  0  0  0  0  0  0  0  0  0
    2.1994   -1.3817    1.0014 C   0  0  0  0  0  0  0  0  0  0  0  0
    3.3131   -0.7567    1.6981 N   0  0  0  0  0  0  0  0  0  0  0  0
    4.0968    0.1213    0.8293 C   0  0  0  0  0  0  0  0  0  0  0  0
    5.0321   -0.5480   -0.1999 C   0  0  0  0  0  0  0  0  0  0  0  0
    6.7227   -0.4336   -2.3105 H   0  0  0  0  0  0  0  0  0  0  0  0
    6.1595    1.1128   -2.9354 H   0  0  0  0  0  0  0  0  0  0  0  0
    6.9533    1.0417   -1.3484 H   0  0  0  0  0  0  0  0  0  0  0  0
    3.7913    1.9913   -1.9242 H   0  0  0  0  0  0  0  0  0  0  0  0
    4.9655    2.2634   -0.6151 H   0  0  0  0  0  0  0  0  0  0  0  0
    2.9373    1.9468    0.6098 H   0  0  0  0  0  0  0  0  0  0  0  0
    1.3800    1.1299   -1.0688 H   0  0  0  0  0  0  0  0  0  0  0  0
    2.3324   -0.2812   -1.4181 H   0  0  0  0  0  0  0  0  0  0  0  0
    1.1847    0.9897    2.0042 H   0  0  0  0  0  0  0  0  0  0  0  0
   -0.0230    1.1807    0.7513 H   0  0  0  0  0  0  0  0  0  0  0  0
   -0.9348    0.3585    2.9108 H   0  0  0  0  0  0  0  0  0  0  0  0
   -0.0141   -1.1105    2.7933 H   0  0  0  0  0  0  0  0  0  0  0  0
   -0.7625   -2.9239    1.2988 H   0  0  0  0  0  0  0  0  0  0  0  0
   -2.6168   -3.8919   -0.0098 H   0  0  0  0  0  0  0  0  0  0  0  0
   -4.5281   -2.4952   -0.6950 H   0  0  0  0  0  0  0  0  0  0  0  0
   -6.4342   -1.1116    0.7266 H   0  0  0  0  0  0  0  0  0  0  0  0
   -8.3320    0.3002    0.0303 H   0  0  0  0  0  0  0  0  0  0  0  0
   -7.9348    2.3836   -1.2582 H   0  0  0  0  0  0  0  0  0  0  0  0
   -5.6183    3.0442   -1.8552 H   0  0  0  0  0  0  0  0  0  0  0  0
   -3.7107    1.6352   -1.1790 H   0  0  0  0  0  0  0  0  0  0  0  0
   -2.7490    0.8956    1.2735 H   0  0  0  0  0  0  0  0  0  0  0  0
    2.5682   -2.0727    0.2332 H   0  0  0  0  0  0  0  0  0  0  0  0
    1.6585   -2.0250    1.7024 H   0  0  0  0  0  0  0  0  0  0  0  0
    2.9254   -0.2068    2.4590 H   0  0  0  0  0  0  0  0  0  0  0  0
    4.7427    0.7184    1.4893 H   0  0  0  0  0  0  0  0  0  0  0  0
    6.0434   -0.6213    0.2192 H   0  0  0  0  0  0  0  0  0  0  0  0
    4.7103   -1.5618   -0.4589 H   0  0  0  0  0  0  0  0  0  0  0  0
  1  2  1  0
  2  3  1  0
  3  4  1  0
  4  5  1  0
  5  6  1  0
  6  7  1  0
  7  8  1  0
  8  9  1  0
  9 10  2  0
 10 11  1  0
 11 12  2  0
 12 13  1  0
 13 14  1  0
 14 15  2  0
 15 16  1  0
 16 17  2  0
 17 18  1  0
 18 19  2  0
 13 20  2  0
  6 21  1  0
 21 22  1  0
 22 23  1  0
 23 24  1  0
 24  2  1  0
 23  4  1  0
 20  9  1  0
 19 14  1  0
  1 25  1  0
  1 26  1  0
  1 27  1  0
  3 28  1  0
  3 29  1  0
  4 30  1  0
  5 31  1  0
  5 32  1  0
  7 33  1  0
  7 34  1  0
  8 35  1  0
  8 36  1  0
 10 37  1  0
 11 38  1  0
 12 39  1  0
 15 40  1  0
 16 41  1  0
 17 42  1  0
 18 43  1  0
 19 44  1  0
 20 45  1  0
 21 46  1  0
 21 47  1  0
 22 48  1  0
 23 49  1  0
 24 50  1  0
 24 51  1  0
M  END
>  <smiles>
CN1CC2CN(CCc3cccc(-c4ccccc4)c3)CNC2C1

$$$$
