mol_ddb452fafe94
     RDKit          3D

 61 64  0  0  0  0  0  0  0  0999 V2000
   -7.3217   -0.1602   -1.0869 C   0  0  0  0  0  0  0  0  0  0  0  0
   -6.5056   -0.9061   -0.1929 O   0  0  0  0  0  0  0  0  0  0  0  0
   -5.2362   -0.2909    0.0450 C   0  0  0  0  0  0  0  0  0  0  0  0
   -5.3480    0.7208    1.1897 C   0  0  0  0  0  0  0  0  0  0  0  0
   -4.0289    1.3760    1.6216 C   0  0  0  0  0  0  0  0  0  0  0  0
   -2.9314    0.3649    2.0333 C   0  0  0  0  0  0  0  0  0  0  0  0
   -1.9384    0.3089    0.9416 N   0  0  0  0  0  0  0  0  0  0  0  0
   -0.8218   -0.5173    1.0885 C   0  0  0  0  0  0  0  0  0  0  0  0
   -0.9714   -1.8697    1.4293 C   0  0  0  0  0  0  0  0  0  0  0  0
    0.1339   -2.7183    1.5920 C   0  0  0  0  0  0  0  0  0  0  0  0
    1.4284   -2.2326    1.4140 C   0  0  0  0  0  0  0  0  0  0  0  0
    2.5712   -2.9699    1.5684 O   0  0  0  0  0  0  0  0  0  0  0  0
    2.4341   -4.2846    2.0892 C   0  0  0  0  0  0  0  0  0  0  0  0
    1.5877   -0.8897    1.0484 C   0  0  0  0  0  0  0  0  0  0  0  0
    2.8232   -0.3112    0.8881 O   0  0  0  0  0  0  0  0  0  0  0  0
    3.4954   -0.7657   -0.3010 C   0  0  0  0  0  0  0  0  0  0  0  0
    4.9456   -1.0955    0.0917 C   0  0  0  0  0  0  0  0  0  0  0  0
    5.8948   -0.9316   -1.0884 C   0  0  0  0  0  0  0  0  0  0  0  0
    5.9217    0.5172   -1.6039 C   0  0  0  0  0  0  0  0  0  0  0  0
    7.0358    1.2600   -1.0156 N   0  0  0  0  0  0  0  0  0  0  0  0
    4.6135    1.2729   -1.3156 C   0  0  0  0  0  0  0  0  0  0  0  0
    3.4096    0.3367   -1.3744 C   0  0  0  0  0  0  0  0  0  0  0  0
    0.4818   -0.0426    0.9150 C   0  0  0  0  0  0  0  0  0  0  0  0
   -2.1760    1.4483    0.1438 C   0  0  0  0  0  0  0  0  0  0  0  0
   -1.4415    1.9056   -0.9386 C   0  0  0  0  0  0  0  0  0  0  0  0
   -1.8602    3.0601   -1.6095 C   0  0  0  0  0  0  0  0  0  0  0  0
   -3.0183    3.7393   -1.2084 C   0  0  0  0  0  0  0  0  0  0  0  0
   -3.7797    3.2634   -0.1425 C   0  0  0  0  0  0  0  0  0  0  0  0
   -3.3488    2.1177    0.5117 C   0  0  0  0  0  0  0  0  0  0  0  0
   -6.8354   -0.0687   -2.0628 H   0  0  0  0  0  0  0  0  0  0  0  0
   -7.5449    0.8308   -0.6827 H   0  0  0  0  0  0  0  0  0  0  0  0
   -8.2639   -0.6990   -1.2194 H   0  0  0  0  0  0  0  0  0  0  0  0
   -4.8534    0.1614   -0.8765 H   0  0  0  0  0  0  0  0  0  0  0  0
   -4.5540   -1.1000    0.3222 H   0  0  0  0  0  0  0  0  0  0  0  0
   -6.0642    1.5035    0.9113 H   0  0  0  0  0  0  0  0  0  0  0  0
   -5.7960    0.2169    2.0563 H   0  0  0  0  0  0  0  0  0  0  0  0
   -4.2266    2.0546    2.4604 H   0  0  0  0  0  0  0  0  0  0  0  0
   -2.4339    0.7338    2.9416 H   0  0  0  0  0  0  0  0  0  0  0  0
   -3.3559   -0.6154    2.2763 H   0  0  0  0  0  0  0  0  0  0  0  0
   -1.9659   -2.2921    1.5508 H   0  0  0  0  0  0  0  0  0  0  0  0
   -0.0591   -3.7532    1.8532 H   0  0  0  0  0  0  0  0  0  0  0  0
    3.4386   -4.6995    2.2172 H   0  0  0  0  0  0  0  0  0  0  0  0
    1.9503   -4.2754    3.0716 H   0  0  0  0  0  0  0  0  0  0  0  0
    1.8953   -4.9301    1.3881 H   0  0  0  0  0  0  0  0  0  0  0  0
    3.0256   -1.6684   -0.7160 H   0  0  0  0  0  0  0  0  0  0  0  0
    4.9919   -2.1248    0.4666 H   0  0  0  0  0  0  0  0  0  0  0  0
    5.2738   -0.4627    0.9265 H   0  0  0  0  0  0  0  0  0  0  0  0
    6.9000   -1.2745   -0.8142 H   0  0  0  0  0  0  0  0  0  0  0  0
    5.5664   -1.5928   -1.9014 H   0  0  0  0  0  0  0  0  0  0  0  0
    6.0822    0.4849   -2.6888 H   0  0  0  0  0  0  0  0  0  0  0  0
    7.0640    2.2034   -1.4002 H   0  0  0  0  0  0  0  0  0  0  0  0
    7.9186    0.8176   -1.2667 H   0  0  0  0  0  0  0  0  0  0  0  0
    4.4923    2.0865   -2.0412 H   0  0  0  0  0  0  0  0  0  0  0  0
    4.6420    1.7451   -0.3240 H   0  0  0  0  0  0  0  0  0  0  0  0
    2.4886    0.9195   -1.2626 H   0  0  0  0  0  0  0  0  0  0  0  0
    3.3783   -0.1281   -2.3680 H   0  0  0  0  0  0  0  0  0  0  0  0
    0.6601    1.0071    0.7022 H   0  0  0  0  0  0  0  0  0  0  0  0
   -0.5592    1.3776   -1.2825 H   0  0  0  0  0  0  0  0  0  0  0  0
   -1.2839    3.4290   -2.4545 H   0  0  0  0  0  0  0  0  0  0  0  0
   -3.3302    4.6340   -1.7416 H   0  0  0  0  0  0  0  0  0  0  0  0
   -4.6898    3.7729    0.1566 H   0  0  0  0  0  0  0  0  0  0  0  0
  1  2  1  0
  2  3  1  0
  3  4  1  0
  4  5  1  0
  5  6  1  0
  6  7  1  0
  7  8  1  0
  8  9  1  0
  9 10  2  0
 10 11  1  0
 11 12  1  0
 12 13  1  0
 11 14  2  0
 14 15  1  0
 15 16  1  0
 16 17  1  0
 17 18  1  0
 18 19  1  0
 19 20  1  0
 19 21  1  0
 21 22  1  0
 14 23  1  0
  7 24  1  0
 24 25  2  0
 25 26  1  0
 26 27  2  0
 27 28  1  0
 28 29  2  0
 29  5  1  0
 23  8  2  0
 29 24  1  0
 22 16  1  0
  1 30  1  0
  1 31  1  0
  1 32  1  0
  3 33  1  0
  3 34  1  0
  4 35  1  0
  4 36  1  0
  5 37  1  0
  6 38  1  0
  6 39  1  0
  9 40  1  0
 10 41  1  0
 13 42  1  0
 13 43  1  0
 13 44  1  0
 16 45  1  0
 17 46  1  0
 17 47  1  0
 18 48  1  0
 18 49  1  0
 19 50  1  0
 20 51  1  0
 20 52  1  0
 21 53  1  0
 21 54  1  0
 22 55  1  0
 22 56  1  0
 23 57  1  0
 25 58  1  0
 26 59  1  0
 27 60  1  0
 28 61  1  0
M  END
>  <smiles>
COCCC1CN(c2ccc(OC)c(OC3CCC(N)CC3)c2)c2ccccc21

$$$$
