mol_f322b88aac5e
     RDKit          3D

 48 52  0  0  0  0  0  0  0  0999 V2000
    3.1418    3.3884    1.6098 N   0  0  0  0  0  0  0  0  0  0  0  0
    1.8014    3.1666    1.4864 C   0  0  0  0  0  0  0  0  0  0  0  0
    1.0637    3.1961    2.4665 O   0  0  0  0  0  0  0  0  0  0  0  0
    1.2935    2.9518    0.0775 C   0  0  0  0  0  0  0  0  0  0  0  0
    1.8908    1.7505   -0.6146 C   0  0  0  0  0  0  0  0  0  0  0  0
    2.7404    1.9371   -1.7020 C   0  0  0  0  0  0  0  0  0  0  0  0
    3.0390    3.1783   -2.1118 F   0  0  0  0  0  0  0  0  0  0  0  0
    3.3181    0.8636   -2.3656 C   0  0  0  0  0  0  0  0  0  0  0  0
    3.0439   -0.4482   -1.9669 C   0  0  0  0  0  0  0  0  0  0  0  0
    2.1803   -0.6768   -0.8572 C   0  0  0  0  0  0  0  0  0  0  0  0
    1.6245    0.4327   -0.1948 C   0  0  0  0  0  0  0  0  0  0  0  0
    0.9328    0.2956    0.9850 O   0  0  0  0  0  0  0  0  0  0  0  0
   -0.2584   -0.3587    0.8649 C   0  0  0  0  0  0  0  0  0  0  0  0
   -1.4153    0.3574    1.1958 C   0  0  0  0  0  0  0  0  0  0  0  0
   -2.6802   -0.2509    1.1510 C   0  0  0  0  0  0  0  0  0  0  0  0
   -3.9068    0.5820    1.4924 C   0  0  0  0  0  0  0  0  0  0  0  0
   -4.5313    1.1816    0.2434 C   0  0  0  0  0  0  0  0  0  0  0  0
   -5.6266    0.1975    0.0014 C   0  0  0  0  0  0  0  0  0  0  0  0
   -5.9664   -0.5775    0.9810 N   0  0  0  0  0  0  0  0  0  0  0  0
   -5.0858   -0.1826    2.1071 C   0  0  0  0  0  0  0  0  0  0  0  0
   -2.7518   -1.5979    0.7731 C   0  0  0  0  0  0  0  0  0  0  0  0
   -1.5887   -2.3180    0.4795 C   0  0  0  0  0  0  0  0  0  0  0  0
   -0.3316   -1.6986    0.5239 C   0  0  0  0  0  0  0  0  0  0  0  0
    0.8681   -2.5259    0.2808 C   0  0  0  0  0  0  0  0  0  0  0  0
    0.8080   -3.7019    0.6501 O   0  0  0  0  0  0  0  0  0  0  0  0
    1.9583   -2.0279   -0.4318 N   0  0  0  0  0  0  0  0  0  0  0  0
    2.9868   -2.9891   -0.8556 C   0  0  0  0  0  0  0  0  0  0  0  0
    3.2844   -2.8500   -2.3452 C   0  0  0  0  0  0  0  0  0  0  0  0
    3.6723   -1.4858   -2.6544 N   0  0  0  0  0  0  0  0  0  0  0  0
    3.5119    3.5426    2.5385 H   0  0  0  0  0  0  0  0  0  0  0  0
    3.7786    3.3807    0.8249 H   0  0  0  0  0  0  0  0  0  0  0  0
    0.2029    2.8452    0.1049 H   0  0  0  0  0  0  0  0  0  0  0  0
    1.4899    3.8710   -0.4877 H   0  0  0  0  0  0  0  0  0  0  0  0
    3.9856    1.0637   -3.1981 H   0  0  0  0  0  0  0  0  0  0  0  0
   -1.3180    1.3972    1.5048 H   0  0  0  0  0  0  0  0  0  0  0  0
   -3.5930    1.3693    2.1894 H   0  0  0  0  0  0  0  0  0  0  0  0
   -4.9856    2.1600    0.4279 H   0  0  0  0  0  0  0  0  0  0  0  0
   -3.8663    1.2433   -0.6218 H   0  0  0  0  0  0  0  0  0  0  0  0
   -6.1366    0.1729   -0.9729 H   0  0  0  0  0  0  0  0  0  0  0  0
   -5.6614    0.4682    2.7767 H   0  0  0  0  0  0  0  0  0  0  0  0
   -4.7752   -1.0622    2.6799 H   0  0  0  0  0  0  0  0  0  0  0  0
   -3.7080   -2.1162    0.7195 H   0  0  0  0  0  0  0  0  0  0  0  0
   -1.6671   -3.3741    0.2264 H   0  0  0  0  0  0  0  0  0  0  0  0
    2.6850   -4.0203   -0.6466 H   0  0  0  0  0  0  0  0  0  0  0  0
    3.8849   -2.7863   -0.2579 H   0  0  0  0  0  0  0  0  0  0  0  0
    2.3964   -3.1116   -2.9329 H   0  0  0  0  0  0  0  0  0  0  0  0
    4.0891   -3.5328   -2.6361 H   0  0  0  0  0  0  0  0  0  0  0  0
    4.1817   -1.2999   -3.5086 H   0  0  0  0  0  0  0  0  0  0  0  0
  1  2  1  0
  2  3  2  0
  2  4  1  0
  4  5  1  0
  5  6  1  0
  6  7  1  0
  6  8  2  0
  8  9  1  0
  9 10  2  0
 10 11  1  0
 11 12  1  0
 12 13  1  0
 13 14  1  0
 14 15  2  0
 15 16  1  0
 16 17  1  0
 17 18  1  0
 18 19  2  0
 19 20  1  0
 15 21  1  0
 21 22  2  0
 22 23  1  0
 23 24  1  0
 24 25  2  0
 24 26  1  0
 26 27  1  0
 27 28  1  0
 28 29  1  0
 11  5  2  0
 23 13  2  0
 29  9  1  0
 26 10  1  0
 20 16  1  0
  1 30  1  0
  1 31  1  0
  4 32  1  0
  4 33  1  0
  8 34  1  0
 14 35  1  0
 16 36  1  0
 17 37  1  0
 17 38  1  0
 18 39  1  0
 20 40  1  0
 20 41  1  0
 21 42  1  0
 22 43  1  0
 27 44  1  0
 27 45  1  0
 28 46  1  0
 28 47  1  0
 29 48  1  0
M  END
>  <smiles>
NC(=O)Cc1c(F)cc2c3c1Oc1cc(C4CC=NC4)ccc1C(=O)N3CCN2

$$$$
