mol_6a00605ee28a
     RDKit          3D

 41 43  0  0  0  0  0  0  0  0999 V2000
    6.0199    2.4021   -0.8379 C   0  0  0  0  0  0  0  0  0  0  0  0
    4.6137    2.3767   -1.0484 O   0  0  0  0  0  0  0  0  0  0  0  0
    3.9164    1.3642   -0.4489 C   0  0  0  0  0  0  0  0  0  0  0  0
    4.4555    0.3564    0.3463 C   0  0  0  0  0  0  0  0  0  0  0  0
    3.6215   -0.6209    0.9000 C   0  0  0  0  0  0  0  0  0  0  0  0
    2.2375   -0.6055    0.6658 C   0  0  0  0  0  0  0  0  0  0  0  0
    1.3873   -1.5717    1.2210 C   0  0  0  0  0  0  0  0  0  0  0  0
    0.0002   -1.5500    0.9822 C   0  0  0  0  0  0  0  0  0  0  0  0
   -0.8276   -2.5794    1.6647 C   0  0  0  0  0  0  0  0  0  0  0  0
   -1.9410   -2.4412    2.1317 O   0  0  0  0  0  0  0  0  0  0  0  0
   -0.1973   -3.7686    1.7143 O   0  0  0  0  0  0  0  0  0  0  0  0
   -0.5645   -0.5535    0.1583 C   0  0  0  0  0  0  0  0  0  0  0  0
   -2.0549   -0.4933   -0.1590 C   0  0  0  0  0  0  0  0  0  0  0  0
   -2.7743    0.5188    0.7567 C   0  0  0  0  0  0  0  0  0  0  0  0
   -4.0944    1.0372    0.1764 C   0  0  0  0  0  0  0  0  0  0  0  0
   -4.7597    0.0157   -0.7358 C   0  0  0  0  0  0  0  0  0  0  0  0
   -3.8711   -0.3530   -1.9258 C   0  0  0  0  0  0  0  0  0  0  0  0
   -2.3731   -0.2047   -1.6381 C   0  0  0  0  0  0  0  0  0  0  0  0
    0.3013    0.4246   -0.3754 C   0  0  0  0  0  0  0  0  0  0  0  0
    1.6876    0.4093   -0.1384 C   0  0  0  0  0  0  0  0  0  0  0  0
    2.5385    1.3846   -0.6854 C   0  0  0  0  0  0  0  0  0  0  0  0
    6.4232    3.2639   -1.3783 H   0  0  0  0  0  0  0  0  0  0  0  0
    6.2580    2.5330    0.2228 H   0  0  0  0  0  0  0  0  0  0  0  0
    6.4959    1.5029   -1.2428 H   0  0  0  0  0  0  0  0  0  0  0  0
    5.5178    0.2990    0.5578 H   0  0  0  0  0  0  0  0  0  0  0  0
    4.0649   -1.3979    1.5195 H   0  0  0  0  0  0  0  0  0  0  0  0
    1.8069   -2.3469    1.8602 H   0  0  0  0  0  0  0  0  0  0  0  0
   -0.8428   -4.3556    2.1608 H   0  0  0  0  0  0  0  0  0  0  0  0
   -2.4851   -1.4853    0.0207 H   0  0  0  0  0  0  0  0  0  0  0  0
   -2.1359    1.3841    0.9766 H   0  0  0  0  0  0  0  0  0  0  0  0
   -2.9682    0.0423    1.7259 H   0  0  0  0  0  0  0  0  0  0  0  0
   -3.9035    1.9556   -0.3931 H   0  0  0  0  0  0  0  0  0  0  0  0
   -4.7705    1.3131    0.9936 H   0  0  0  0  0  0  0  0  0  0  0  0
   -4.9851   -0.8889   -0.1568 H   0  0  0  0  0  0  0  0  0  0  0  0
   -5.7200    0.3987   -1.0992 H   0  0  0  0  0  0  0  0  0  0  0  0
   -4.0918   -1.3854   -2.2231 H   0  0  0  0  0  0  0  0  0  0  0  0
   -4.1264    0.2742   -2.7885 H   0  0  0  0  0  0  0  0  0  0  0  0
   -1.8089   -0.8749   -2.2983 H   0  0  0  0  0  0  0  0  0  0  0  0
   -2.0728    0.8167   -1.9030 H   0  0  0  0  0  0  0  0  0  0  0  0
   -0.1068    1.2263   -0.9887 H   0  0  0  0  0  0  0  0  0  0  0  0
    2.1298    2.1773   -1.3090 H   0  0  0  0  0  0  0  0  0  0  0  0
  1  2  1  0
  2  3  1  0
  3  4  2  0
  4  5  1  0
  5  6  2  0
  6  7  1  0
  7  8  2  0
  8  9  1  0
  9 10  2  0
  9 11  1  0
  8 12  1  0
 12 13  1  0
 13 14  1  0
 14 15  1  0
 15 16  1  0
 16 17  1  0
 17 18  1  0
 12 19  2  0
 19 20  1  0
 20 21  2  0
 21  3  1  0
 20  6  1  0
 18 13  1  0
  1 22  1  0
  1 23  1  0
  1 24  1  0
  4 25  1  0
  5 26  1  0
  7 27  1  0
 11 28  1  0
 13 29  1  0
 14 30  1  0
 14 31  1  0
 15 32  1  0
 15 33  1  0
 16 34  1  0
 16 35  1  0
 17 36  1  0
 17 37  1  0
 18 38  1  0
 18 39  1  0
 19 40  1  0
 21 41  1  0
M  END
>  <smiles>
COc1ccc2cc(C(=O)O)c(C3CCCCC3)cc2c1

$$$$
