mol_ba2da5dfe626
     RDKit          3D

 49 52  0  0  0  0  0  0  0  0999 V2000
    1.4003   -3.0608    0.4022 O   0  0  0  0  0  0  0  0  0  0  0  0
    0.5170   -3.5302    1.1005 C   0  0  0  0  0  0  0  0  0  0  0  0
   -0.1781   -4.6142    0.7010 O   0  0  0  0  0  0  0  0  0  0  0  0
    0.0351   -3.0134    2.4254 C   0  0  0  0  0  0  0  0  0  0  0  0
    1.1097   -2.1874    3.1154 C   0  0  0  0  0  0  0  0  0  0  0  0
    1.2606   -0.8626    2.5455 N   0  0  0  0  0  0  0  0  0  0  0  0
    0.5033    0.2061    2.9673 C   0  0  0  0  0  0  0  0  0  0  0  0
   -0.3750    0.1422    3.8172 O   0  0  0  0  0  0  0  0  0  0  0  0
    0.8793    1.5099    2.3806 C   0  0  0  0  0  0  0  0  0  0  0  0
    1.4023    2.4528    3.2810 C   0  0  0  0  0  0  0  0  0  0  0  0
    1.8486    3.6877    2.8199 C   0  0  0  0  0  0  0  0  0  0  0  0
    1.7663    3.9816    1.4622 C   0  0  0  0  0  0  0  0  0  0  0  0
    1.2097    3.0569    0.5728 C   0  0  0  0  0  0  0  0  0  0  0  0
    0.7523    1.8075    1.0127 C   0  0  0  0  0  0  0  0  0  0  0  0
    0.1726    0.8934    0.0261 C   0  0  0  0  0  0  0  0  0  0  0  0
   -0.0776    1.3434   -1.2148 C   0  0  0  0  0  0  0  0  0  0  0  0
   -0.7015    0.5207   -2.2573 C   0  0  0  0  0  0  0  0  0  0  0  0
   -1.3664   -0.7730   -1.9979 C   0  0  0  0  0  0  0  0  0  0  0  0
   -2.6882   -0.8025   -1.5283 C   0  0  0  0  0  0  0  0  0  0  0  0
   -3.3230   -2.0214   -1.2776 C   0  0  0  0  0  0  0  0  0  0  0  0
   -2.6383   -3.2156   -1.4927 C   0  0  0  0  0  0  0  0  0  0  0  0
   -1.3269   -3.1802   -1.9547 C   0  0  0  0  0  0  0  0  0  0  0  0
   -0.6569   -4.3307   -2.1166 F   0  0  0  0  0  0  0  0  0  0  0  0
   -0.6833   -1.9748   -2.2083 C   0  0  0  0  0  0  0  0  0  0  0  0
   -0.7434    0.9485   -3.5351 C   0  0  0  0  0  0  0  0  0  0  0  0
   -0.1367    2.2311   -4.0203 C   0  0  0  0  0  0  0  0  0  0  0  0
    0.8154    2.8521   -3.0072 C   0  0  0  0  0  0  0  0  0  0  0  0
    0.2453    2.7790   -1.5895 C   0  0  0  0  0  0  0  0  0  0  0  0
    1.1987    3.4400   -0.7402 O   0  0  0  0  0  0  0  0  0  0  0  0
    0.1506   -4.8044   -0.2055 H   0  0  0  0  0  0  0  0  0  0  0  0
   -0.8817   -2.4368    2.2656 H   0  0  0  0  0  0  0  0  0  0  0  0
   -0.1944   -3.8778    3.0590 H   0  0  0  0  0  0  0  0  0  0  0  0
    0.8566   -2.0766    4.1759 H   0  0  0  0  0  0  0  0  0  0  0  0
    2.0881   -2.6767    3.0556 H   0  0  0  0  0  0  0  0  0  0  0  0
    1.9605   -0.7298    1.8223 H   0  0  0  0  0  0  0  0  0  0  0  0
    1.4714    2.2132    4.3405 H   0  0  0  0  0  0  0  0  0  0  0  0
    2.2652    4.4138    3.5130 H   0  0  0  0  0  0  0  0  0  0  0  0
    2.1254    4.9384    1.0910 H   0  0  0  0  0  0  0  0  0  0  0  0
   -0.0715   -0.1185    0.3280 H   0  0  0  0  0  0  0  0  0  0  0  0
   -3.2267    0.1268   -1.3531 H   0  0  0  0  0  0  0  0  0  0  0  0
   -4.3458   -2.0366   -0.9098 H   0  0  0  0  0  0  0  0  0  0  0  0
   -3.1131   -4.1706   -1.2910 H   0  0  0  0  0  0  0  0  0  0  0  0
    0.3473   -1.9807   -2.5502 H   0  0  0  0  0  0  0  0  0  0  0  0
   -1.2426    0.3511   -4.2970 H   0  0  0  0  0  0  0  0  0  0  0  0
   -0.9474    2.9327   -4.2495 H   0  0  0  0  0  0  0  0  0  0  0  0
    0.4041    2.0482   -4.9557 H   0  0  0  0  0  0  0  0  0  0  0  0
    1.7857    2.3368   -3.0407 H   0  0  0  0  0  0  0  0  0  0  0  0
    1.0283    3.8932   -3.2803 H   0  0  0  0  0  0  0  0  0  0  0  0
   -0.6814    3.3684   -1.5491 H   0  0  0  0  0  0  0  0  0  0  0  0
  1  2  2  0
  2  3  1  0
  2  4  1  0
  4  5  1  0
  5  6  1  0
  6  7  1  0
  7  8  2  0
  7  9  1  0
  9 10  2  0
 10 11  1  0
 11 12  2  0
 12 13  1  0
 13 14  2  0
 14 15  1  0
 15 16  2  0
 16 17  1  0
 17 18  1  0
 18 19  2  0
 19 20  1  0
 20 21  2  0
 21 22  1  0
 22 23  1  0
 22 24  2  0
 17 25  2  0
 25 26  1  0
 26 27  1  0
 27 28  1  0
 28 29  1  0
 14  9  1  0
 28 16  1  0
 29 13  1  0
 24 18  1  0
  3 30  1  0
  4 31  1  0
  4 32  1  0
  5 33  1  0
  5 34  1  0
  6 35  1  0
 10 36  1  0
 11 37  1  0
 12 38  1  0
 15 39  1  0
 19 40  1  0
 20 41  1  0
 21 42  1  0
 24 43  1  0
 25 44  1  0
 26 45  1  0
 26 46  1  0
 27 47  1  0
 27 48  1  0
 28 49  1  0
M  END
>  <smiles>
O=C(O)CCNC(=O)c1cccc2c1C=C1C(c3cccc(F)c3)=CCCC1O2

$$$$
