mol_74c1cee1a160
     RDKit          3D

 48 52  0  0  0  0  0  0  0  0999 V2000
   -2.1674    2.6296    2.2302 N   0  0  0  0  0  0  0  0  0  0  0  0
   -2.3925    3.1989    1.0111 C   0  0  0  0  0  0  0  0  0  0  0  0
   -3.1741    4.1361    0.8864 O   0  0  0  0  0  0  0  0  0  0  0  0
   -1.6031    2.6159   -0.1428 C   0  0  0  0  0  0  0  0  0  0  0  0
   -2.1147    1.2600   -0.5719 C   0  0  0  0  0  0  0  0  0  0  0  0
   -3.1680    1.2029   -1.4888 C   0  0  0  0  0  0  0  0  0  0  0  0
   -3.7413   -0.0196   -1.8205 C   0  0  0  0  0  0  0  0  0  0  0  0
   -3.2772   -1.2102   -1.2472 C   0  0  0  0  0  0  0  0  0  0  0  0
   -2.1411   -1.1945   -0.3916 C   0  0  0  0  0  0  0  0  0  0  0  0
   -1.6047    0.0565   -0.0364 C   0  0  0  0  0  0  0  0  0  0  0  0
   -0.6728    0.1847    0.9694 O   0  0  0  0  0  0  0  0  0  0  0  0
    0.5495   -0.3436    0.6684 C   0  0  0  0  0  0  0  0  0  0  0  0
    1.6409    0.5367    0.6294 C   0  0  0  0  0  0  0  0  0  0  0  0
    2.9419    0.0761    0.3687 C   0  0  0  0  0  0  0  0  0  0  0  0
    4.1144    1.0343    0.3456 C   0  0  0  0  0  0  0  0  0  0  0  0
    3.8209    2.4122   -0.2325 C   0  0  0  0  0  0  0  0  0  0  0  0
    5.1936    2.8056   -0.6596 C   0  0  0  0  0  0  0  0  0  0  0  0
    6.0644    1.8606   -0.8077 N   0  0  0  0  0  0  0  0  0  0  0  0
    5.3282    0.6149   -0.4956 C   0  0  0  0  0  0  0  0  0  0  0  0
    3.1249   -1.3042    0.2167 C   0  0  0  0  0  0  0  0  0  0  0  0
    2.0382   -2.1822    0.2871 C   0  0  0  0  0  0  0  0  0  0  0  0
    0.7385   -1.7033    0.5071 C   0  0  0  0  0  0  0  0  0  0  0  0
   -0.3537   -2.6887    0.6265 C   0  0  0  0  0  0  0  0  0  0  0  0
   -0.0468   -3.7872    1.1006 O   0  0  0  0  0  0  0  0  0  0  0  0
   -1.6283   -2.4417    0.1067 N   0  0  0  0  0  0  0  0  0  0  0  0
   -2.4141   -3.6540   -0.1613 C   0  0  0  0  0  0  0  0  0  0  0  0
   -3.8744   -3.4106   -0.5117 C   0  0  0  0  0  0  0  0  0  0  0  0
   -3.9783   -2.3863   -1.5288 N   0  0  0  0  0  0  0  0  0  0  0  0
   -1.5875    1.8088    2.3504 H   0  0  0  0  0  0  0  0  0  0  0  0
   -2.6803    2.9872    3.0250 H   0  0  0  0  0  0  0  0  0  0  0  0
   -0.5451    2.5759    0.1316 H   0  0  0  0  0  0  0  0  0  0  0  0
   -1.6577    3.3164   -0.9858 H   0  0  0  0  0  0  0  0  0  0  0  0
   -3.5813    2.1154   -1.9159 H   0  0  0  0  0  0  0  0  0  0  0  0
   -4.5894   -0.0343   -2.5008 H   0  0  0  0  0  0  0  0  0  0  0  0
    1.4632    1.5925    0.8159 H   0  0  0  0  0  0  0  0  0  0  0  0
    4.4490    1.1589    1.3861 H   0  0  0  0  0  0  0  0  0  0  0  0
    3.1649    2.4039   -1.1085 H   0  0  0  0  0  0  0  0  0  0  0  0
    3.4348    3.1129    0.5124 H   0  0  0  0  0  0  0  0  0  0  0  0
    5.4251    3.8608   -0.8668 H   0  0  0  0  0  0  0  0  0  0  0  0
    5.0420    0.1284   -1.4360 H   0  0  0  0  0  0  0  0  0  0  0  0
    5.9763   -0.0690    0.0630 H   0  0  0  0  0  0  0  0  0  0  0  0
    4.1150   -1.7276    0.0588 H   0  0  0  0  0  0  0  0  0  0  0  0
    2.2127   -3.2521    0.1805 H   0  0  0  0  0  0  0  0  0  0  0  0
   -1.9149   -4.1726   -0.9911 H   0  0  0  0  0  0  0  0  0  0  0  0
   -2.3623   -4.3214    0.7074 H   0  0  0  0  0  0  0  0  0  0  0  0
   -4.4295   -3.0955    0.3808 H   0  0  0  0  0  0  0  0  0  0  0  0
   -4.3353   -4.3371   -0.8701 H   0  0  0  0  0  0  0  0  0  0  0  0
   -4.8028   -2.3503   -2.1137 H   0  0  0  0  0  0  0  0  0  0  0  0
  1  2  1  0
  2  3  2  0
  2  4  1  0
  4  5  1  0
  5  6  1  0
  6  7  2  0
  7  8  1  0
  8  9  2  0
  9 10  1  0
 10 11  1  0
 11 12  1  0
 12 13  1  0
 13 14  2  0
 14 15  1  0
 15 16  1  0
 16 17  1  0
 17 18  2  0
 18 19  1  0
 14 20  1  0
 20 21  2  0
 21 22  1  0
 22 23  1  0
 23 24  2  0
 23 25  1  0
 25 26  1  0
 26 27  1  0
 27 28  1  0
 10  5  2  0
 22 12  2  0
 28  8  1  0
 25  9  1  0
 19 15  1  0
  1 29  1  0
  1 30  1  0
  4 31  1  0
  4 32  1  0
  6 33  1  0
  7 34  1  0
 13 35  1  0
 15 36  1  0
 16 37  1  0
 16 38  1  0
 17 39  1  0
 19 40  1  0
 19 41  1  0
 20 42  1  0
 21 43  1  0
 26 44  1  0
 26 45  1  0
 27 46  1  0
 27 47  1  0
 28 48  1  0
M  END
>  <smiles>
NC(=O)Cc1ccc2c3c1Oc1cc(C4CC=NC4)ccc1C(=O)N3CCN2

$$$$
