mol_1dbdc774648d
     RDKit          3D

 49 52  0  0  0  0  0  0  0  0999 V2000
    0.0670   -3.2857   -2.0644 C   0  0  0  0  0  0  0  0  0  0  0  0
   -0.7549   -2.3019   -1.2711 C   0  0  0  0  0  0  0  0  0  0  0  0
   -2.1567   -2.3931   -1.2714 C   0  0  0  0  0  0  0  0  0  0  0  0
   -2.8428   -3.3404   -1.9812 O   0  0  0  0  0  0  0  0  0  0  0  0
   -2.9481   -1.5028   -0.5525 C   0  0  0  0  0  0  0  0  0  0  0  0
   -2.3562   -0.4725    0.1738 C   0  0  0  0  0  0  0  0  0  0  0  0
   -0.9512   -0.3631    0.2153 C   0  0  0  0  0  0  0  0  0  0  0  0
   -0.1442   -1.2480   -0.5405 C   0  0  0  0  0  0  0  0  0  0  0  0
    1.3638   -1.0650   -0.5709 C   0  0  0  0  0  0  0  0  0  0  0  0
    1.8951    0.1571    0.0320 N   0  0  0  0  0  0  0  0  0  0  0  0
    3.2532    0.3850    0.2191 C   0  0  0  0  0  0  0  0  0  0  0  0
    3.6896    1.4438    0.6696 O   0  0  0  0  0  0  0  0  0  0  0  0
    4.1956   -0.7583   -0.1329 C   0  0  0  0  0  0  0  0  0  0  0  0
    5.6624   -0.3476   -0.0415 C   0  0  0  0  0  0  0  0  0  0  0  0
    6.0745    0.6840   -1.0577 C   0  0  0  0  0  0  0  0  0  0  0  0
    7.0621    1.3976   -0.9800 O   0  0  0  0  0  0  0  0  0  0  0  0
    5.3066    0.7166   -2.1622 O   0  0  0  0  0  0  0  0  0  0  0  0
    0.9479    1.2393    0.3196 C   0  0  0  0  0  0  0  0  0  0  0  0
   -0.2741    0.7010    1.0811 C   0  0  0  0  0  0  0  0  0  0  0  0
   -1.1243    1.8071    1.5839 N   0  0  0  0  0  0  0  0  0  0  0  0
   -2.3953    1.8862    0.8755 C   0  0  0  0  0  0  0  0  0  0  0  0
   -3.4066    2.8504    1.4861 C   0  0  0  0  0  0  0  0  0  0  0  0
   -4.7495    2.3883    0.9095 C   0  0  0  0  0  0  0  0  0  0  0  0
   -4.5230    0.9699    0.3676 C   0  0  0  0  0  0  0  0  0  0  0  0
   -3.1576    0.5552    0.9176 C   0  0  0  0  0  0  0  0  0  0  0  0
    0.0729   -2.9992   -3.1206 H   0  0  0  0  0  0  0  0  0  0  0  0
    1.1010   -3.3501   -1.7159 H   0  0  0  0  0  0  0  0  0  0  0  0
   -0.3383   -4.2985   -1.9667 H   0  0  0  0  0  0  0  0  0  0  0  0
   -2.2556   -3.7440   -2.6377 H   0  0  0  0  0  0  0  0  0  0  0  0
   -4.0288   -1.6137   -0.5845 H   0  0  0  0  0  0  0  0  0  0  0  0
    1.6950   -1.0509   -1.6162 H   0  0  0  0  0  0  0  0  0  0  0  0
    1.8273   -1.9181   -0.0641 H   0  0  0  0  0  0  0  0  0  0  0  0
    4.0153   -1.5702    0.5810 H   0  0  0  0  0  0  0  0  0  0  0  0
    3.9691   -1.1320   -1.1365 H   0  0  0  0  0  0  0  0  0  0  0  0
    6.2943   -1.2287   -0.1976 H   0  0  0  0  0  0  0  0  0  0  0  0
    5.8772    0.0574    0.9539 H   0  0  0  0  0  0  0  0  0  0  0  0
    5.7054    1.4414   -2.6897 H   0  0  0  0  0  0  0  0  0  0  0  0
    1.4370    2.0243    0.9070 H   0  0  0  0  0  0  0  0  0  0  0  0
    0.6584    1.6844   -0.6413 H   0  0  0  0  0  0  0  0  0  0  0  0
    0.0945    0.1707    1.9712 H   0  0  0  0  0  0  0  0  0  0  0  0
   -1.3115    1.6274    2.5706 H   0  0  0  0  0  0  0  0  0  0  0  0
   -2.2038    2.1993   -0.1621 H   0  0  0  0  0  0  0  0  0  0  0  0
   -3.4291    2.7618    2.5796 H   0  0  0  0  0  0  0  0  0  0  0  0
   -3.1899    3.8950    1.2415 H   0  0  0  0  0  0  0  0  0  0  0  0
   -5.5239    2.3997    1.6839 H   0  0  0  0  0  0  0  0  0  0  0  0
   -5.0802    3.0521    0.1032 H   0  0  0  0  0  0  0  0  0  0  0  0
   -5.3181    0.2842    0.6782 H   0  0  0  0  0  0  0  0  0  0  0  0
   -4.5210    0.9951   -0.7293 H   0  0  0  0  0  0  0  0  0  0  0  0
   -3.2806    0.2095    1.9545 H   0  0  0  0  0  0  0  0  0  0  0  0
  1  2  1  0
  2  3  1  0
  3  4  1  0
  3  5  2  0
  5  6  1  0
  6  7  2  0
  7  8  1  0
  8  9  1  0
  9 10  1  0
 10 11  1  0
 11 12  2  0
 11 13  1  0
 13 14  1  0
 14 15  1  0
 15 16  2  0
 15 17  1  0
 10 18  1  0
 18 19  1  0
 19 20  1  0
 20 21  1  0
 21 22  1  0
 22 23  1  0
 23 24  1  0
 24 25  1  0
  8  2  2  0
 25 21  1  0
 25  6  1  0
 19  7  1  0
  1 26  1  0
  1 27  1  0
  1 28  1  0
  4 29  1  0
  5 30  1  0
  9 31  1  0
  9 32  1  0
 13 33  1  0
 13 34  1  0
 14 35  1  0
 14 36  1  0
 17 37  1  0
 18 38  1  0
 18 39  1  0
 19 40  1  0
 20 41  1  0
 21 42  1  0
 22 43  1  0
 22 44  1  0
 23 45  1  0
 23 46  1  0
 24 47  1  0
 24 48  1  0
 25 49  1  0
M  END
>  <smiles>
Cc1c(O)cc2c3c1CN(C(=O)CCC(=O)O)CC3NC1CCCC21

$$$$
