mol_222642b36409
     RDKit          3D

 43 45  0  0  0  0  0  0  0  0999 V2000
    6.1991    1.3158    0.2353 N   0  0  0  0  0  0  0  0  0  0  0  0
    4.7559    1.0951    0.2899 C   0  0  0  0  0  0  0  0  0  0  0  0
    4.1514    1.1301   -1.1180 C   0  0  0  0  0  0  0  0  0  0  0  0
    2.6530    0.8338   -1.0877 C   0  0  0  0  0  0  0  0  0  0  0  0
    2.3532   -0.4992   -0.3900 C   0  0  0  0  0  0  0  0  0  0  0  0
    0.9169   -0.7277   -0.3224 N   0  0  0  0  0  0  0  0  0  0  0  0
    0.2182   -1.2669   -1.3832 C   0  0  0  0  0  0  0  0  0  0  0  0
    0.7487   -1.6427   -2.4222 O   0  0  0  0  0  0  0  0  0  0  0  0
   -1.2529   -1.4093   -1.2060 C   0  0  0  0  0  0  0  0  0  0  0  0
   -1.9026   -2.4466   -1.8828 C   0  0  0  0  0  0  0  0  0  0  0  0
   -3.2797   -2.6116   -1.7517 C   0  0  0  0  0  0  0  0  0  0  0  0
   -4.0141   -1.7336   -0.9517 C   0  0  0  0  0  0  0  0  0  0  0  0
   -3.3888   -0.6731   -0.2742 C   0  0  0  0  0  0  0  0  0  0  0  0
   -4.1691    0.2588    0.5507 C   0  0  0  0  0  0  0  0  0  0  0  0
   -5.2718    0.9538    0.0385 C   0  0  0  0  0  0  0  0  0  0  0  0
   -5.9852    1.8364    0.8480 C   0  0  0  0  0  0  0  0  0  0  0  0
   -5.5748    2.0032    2.1593 C   0  0  0  0  0  0  0  0  0  0  0  0
   -4.5218    1.3569    2.7003 N   0  0  0  0  0  0  0  0  0  0  0  0
   -3.8519    0.5037    1.8879 C   0  0  0  0  0  0  0  0  0  0  0  0
   -1.9974   -0.5209   -0.4160 C   0  0  0  0  0  0  0  0  0  0  0  0
    2.9653   -0.5338    1.0146 C   0  0  0  0  0  0  0  0  0  0  0  0
    4.4640   -0.2398    0.9835 C   0  0  0  0  0  0  0  0  0  0  0  0
    6.3949    2.1901   -0.2517 H   0  0  0  0  0  0  0  0  0  0  0  0
    6.6426    0.5835   -0.3192 H   0  0  0  0  0  0  0  0  0  0  0  0
    4.3141    1.9038    0.8853 H   0  0  0  0  0  0  0  0  0  0  0  0
    4.6485    0.3934   -1.7628 H   0  0  0  0  0  0  0  0  0  0  0  0
    4.3149    2.1136   -1.5754 H   0  0  0  0  0  0  0  0  0  0  0  0
    2.2657    0.8199   -2.1136 H   0  0  0  0  0  0  0  0  0  0  0  0
    2.1301    1.6498   -0.5716 H   0  0  0  0  0  0  0  0  0  0  0  0
    2.7949   -1.3109   -0.9829 H   0  0  0  0  0  0  0  0  0  0  0  0
    0.4344   -0.4924    0.5334 H   0  0  0  0  0  0  0  0  0  0  0  0
   -1.3341   -3.1287   -2.5125 H   0  0  0  0  0  0  0  0  0  0  0  0
   -3.7814   -3.4228   -2.2737 H   0  0  0  0  0  0  0  0  0  0  0  0
   -5.0883   -1.8859   -0.8578 H   0  0  0  0  0  0  0  0  0  0  0  0
   -5.5743    0.8214   -0.9979 H   0  0  0  0  0  0  0  0  0  0  0  0
   -6.8383    2.3831    0.4619 H   0  0  0  0  0  0  0  0  0  0  0  0
   -6.0973    2.6809    2.8284 H   0  0  0  0  0  0  0  0  0  0  0  0
   -3.0210   -0.0063    2.3692 H   0  0  0  0  0  0  0  0  0  0  0  0
   -1.5075    0.3249    0.0602 H   0  0  0  0  0  0  0  0  0  0  0  0
    2.4647    0.1998    1.6602 H   0  0  0  0  0  0  0  0  0  0  0  0
    2.7942   -1.5160    1.4721 H   0  0  0  0  0  0  0  0  0  0  0  0
    4.9780   -1.0591    0.4635 H   0  0  0  0  0  0  0  0  0  0  0  0
    4.8496   -0.2244    2.0104 H   0  0  0  0  0  0  0  0  0  0  0  0
  1  2  1  0
  2  3  1  0
  3  4  1  0
  4  5  1  0
  5  6  1  0
  6  7  1  0
  7  8  2  0
  7  9  1  0
  9 10  1  0
 10 11  2  0
 11 12  1  0
 12 13  2  0
 13 14  1  0
 14 15  1  0
 15 16  2  0
 16 17  1  0
 17 18  2  0
 18 19  1  0
 13 20  1  0
  5 21  1  0
 21 22  1  0
 22  2  1  0
 20  9  2  0
 19 14  2  0
  1 23  1  0
  1 24  1  0
  2 25  1  0
  3 26  1  0
  3 27  1  0
  4 28  1  0
  4 29  1  0
  5 30  1  0
  6 31  1  0
 10 32  1  0
 11 33  1  0
 12 34  1  0
 15 35  1  0
 16 36  1  0
 17 37  1  0
 19 38  1  0
 20 39  1  0
 21 40  1  0
 21 41  1  0
 22 42  1  0
 22 43  1  0
M  END
>  <smiles>
NC1CCC(NC(=O)c2cccc(-c3cccnc3)c2)CC1

$$$$
