mol_b1945ee6797e
     RDKit          3D

 43 44  0  0  0  0  0  0  0  0999 V2000
    6.2676    1.7701    1.0749 C   0  0  0  0  0  0  0  0  0  0  0  0
    5.0911    2.4207    0.3703 C   0  0  0  0  0  0  0  0  0  0  0  0
    3.9568    1.5252    0.2894 N   0  0  0  0  0  0  0  0  0  0  0  0
    3.8257    0.6134   -0.7376 C   0  0  0  0  0  0  0  0  0  0  0  0
    4.6608    0.4679   -1.6232 O   0  0  0  0  0  0  0  0  0  0  0  0
    2.6104   -0.2463   -0.7107 C   0  0  0  0  0  0  0  0  0  0  0  0
    2.6864   -1.5180   -1.2855 C   0  0  0  0  0  0  0  0  0  0  0  0
    1.5708   -2.3580   -1.2818 C   0  0  0  0  0  0  0  0  0  0  0  0
    0.3589   -1.9363   -0.7125 C   0  0  0  0  0  0  0  0  0  0  0  0
   -0.7731   -2.7664   -0.6995 C   0  0  0  0  0  0  0  0  0  0  0  0
   -1.9937   -2.3446   -0.1417 C   0  0  0  0  0  0  0  0  0  0  0  0
   -3.1566   -3.2998   -0.1447 C   0  0  0  0  0  0  0  0  0  0  0  0
   -2.0835   -1.0563    0.4189 C   0  0  0  0  0  0  0  0  0  0  0  0
   -3.3630   -0.5155    1.0209 C   0  0  0  0  0  0  0  0  0  0  0  0
   -4.3253    0.1013   -0.0043 C   0  0  0  0  0  0  0  0  0  0  0  0
   -3.8235    1.3822   -0.6670 C   0  0  0  0  0  0  0  0  0  0  0  0
   -3.6560    2.5037    0.3177 C   0  0  0  0  0  0  0  0  0  0  0  0
   -2.6022    2.9092    0.7787 O   0  0  0  0  0  0  0  0  0  0  0  0
   -4.8282    3.0482    0.6928 O   0  0  0  0  0  0  0  0  0  0  0  0
   -0.9440   -0.2296    0.4134 C   0  0  0  0  0  0  0  0  0  0  0  0
    0.2731   -0.6490   -0.1453 C   0  0  0  0  0  0  0  0  0  0  0  0
    1.4012    0.1901   -0.1547 C   0  0  0  0  0  0  0  0  0  0  0  0
    7.1042    2.4716    1.1477 H   0  0  0  0  0  0  0  0  0  0  0  0
    6.6109    0.8820    0.5343 H   0  0  0  0  0  0  0  0  0  0  0  0
    5.9920    1.4573    2.0876 H   0  0  0  0  0  0  0  0  0  0  0  0
    5.3808    2.7322   -0.6388 H   0  0  0  0  0  0  0  0  0  0  0  0
    4.7650    3.3078    0.9225 H   0  0  0  0  0  0  0  0  0  0  0  0
    3.2931    1.5295    1.0510 H   0  0  0  0  0  0  0  0  0  0  0  0
    3.6164   -1.8593   -1.7362 H   0  0  0  0  0  0  0  0  0  0  0  0
    1.6556   -3.3448   -1.7318 H   0  0  0  0  0  0  0  0  0  0  0  0
   -0.7034   -3.7632   -1.1329 H   0  0  0  0  0  0  0  0  0  0  0  0
   -4.0111   -2.8694   -0.6737 H   0  0  0  0  0  0  0  0  0  0  0  0
   -2.9047   -4.2389   -0.6494 H   0  0  0  0  0  0  0  0  0  0  0  0
   -3.4460   -3.5482    0.8812 H   0  0  0  0  0  0  0  0  0  0  0  0
   -3.8793   -1.3249    1.5511 H   0  0  0  0  0  0  0  0  0  0  0  0
   -3.1232    0.2156    1.8032 H   0  0  0  0  0  0  0  0  0  0  0  0
   -5.2734    0.3121    0.5064 H   0  0  0  0  0  0  0  0  0  0  0  0
   -4.5515   -0.6269   -0.7913 H   0  0  0  0  0  0  0  0  0  0  0  0
   -4.5343    1.7111   -1.4347 H   0  0  0  0  0  0  0  0  0  0  0  0
   -2.8732    1.2261   -1.1875 H   0  0  0  0  0  0  0  0  0  0  0  0
   -4.5761    3.7566    1.3216 H   0  0  0  0  0  0  0  0  0  0  0  0
   -1.0101    0.7660    0.8520 H   0  0  0  0  0  0  0  0  0  0  0  0
    1.3149    1.1954    0.2489 H   0  0  0  0  0  0  0  0  0  0  0  0
  1  2  1  0
  2  3  1  0
  3  4  1  0
  4  5  2  0
  4  6  1  0
  6  7  2  0
  7  8  1  0
  8  9  2  0
  9 10  1  0
 10 11  2  0
 11 12  1  0
 11 13  1  0
 13 14  1  0
 14 15  1  0
 15 16  1  0
 16 17  1  0
 17 18  2  0
 17 19  1  0
 13 20  2  0
 20 21  1  0
 21 22  2  0
 22  6  1  0
 21  9  1  0
  1 23  1  0
  1 24  1  0
  1 25  1  0
  2 26  1  0
  2 27  1  0
  3 28  1  0
  7 29  1  0
  8 30  1  0
 10 31  1  0
 12 32  1  0
 12 33  1  0
 12 34  1  0
 14 35  1  0
 14 36  1  0
 15 37  1  0
 15 38  1  0
 16 39  1  0
 16 40  1  0
 19 41  1  0
 20 42  1  0
 22 43  1  0
M  END
>  <smiles>
CCNC(=O)c1ccc2cc(C)c(CCCC(=O)O)cc2c1

$$$$
