
     RDKit          3D

 21 23  0  0  0  0  0  0  0  0999 V2000
   -6.1061    9.1693   13.3258 C   0  0  0  0  0  0  0  0  0  0  0  0
   -5.1601    9.1704   14.3870 O   0  0  0  0  0  0  0  0  0  0  0  0
   -3.8376    9.1286   14.0382 C   0  0  0  0  0  0  0  0  0  0  0  0
   -3.3348    9.0901   12.7374 C   0  0  0  0  0  0  0  0  0  0  0  0
   -1.9556    9.0494   12.5205 C   0  0  0  0  0  0  0  0  0  0  0  0
   -1.0742    9.0472   13.6030 C   0  0  0  0  0  0  0  0  0  0  0  0
   -1.5611    9.0857   14.9161 C   0  0  0  0  0  0  0  0  0  0  0  0
   -0.6492    9.0835   16.0560 C   0  0  0  0  0  0  0  0  0  0  0  0
    0.6897    9.0523   15.9510 N   0  0  0  0  0  0  0  0  0  0  0  0
    1.0740    9.0592   17.2347 N   0  0  0  0  0  0  0  0  0  0  0  0
    0.0038    9.1000   18.0807 C   0  0  0  0  0  0  0  0  0  0  0  0
    0.1158    9.1406   19.5656 C   0  0  0  0  0  0  0  0  0  0  0  0
    1.3349    8.4298   20.1103 C   0  0  0  0  0  0  0  0  0  0  0  0
    2.4464    9.1591   20.5589 C   0  0  0  0  0  0  0  0  0  0  0  0
    3.5802    8.4987   21.0358 C   0  0  0  0  0  0  0  0  0  0  0  0
    3.6168    7.1049   21.0679 C   0  0  0  0  0  0  0  0  0  0  0  0
    2.5165    6.3752   20.6232 C   0  0  0  0  0  0  0  0  0  0  0  0
    2.5664    4.4860   20.6640 Br  0  0  0  0  0  0  0  0  0  0  0  0
    1.3799    7.0270   20.1449 C   0  0  0  0  0  0  0  0  0  0  0  0
   -1.0972    9.1169   17.3605 N   0  0  0  0  0  0  0  0  0  0  0  0
   -2.9484    9.1262   15.1184 C   0  0  0  0  0  0  0  0  0  0  0  0
  1  2  1  0
  2  3  1  0
  3  4  1  0
  4  5  2  0
  5  6  1  0
  6  7  2  0
  7  8  1  0
  8  9  2  0
  9 10  1  0
 10 11  1  0
 11 12  1  0
 12 13  1  0
 13 14  2  0
 14 15  1  0
 15 16  2  0
 16 17  1  0
 17 18  1  0
 17 19  2  0
 11 20  2  0
  7 21  1  0
 21  3  2  0
 20  8  1  0
 19 13  1  0
M  END
$$$$
