
     RDKit          3D

 26 29  0  0  0  0  0  0  0  0999 V2000
   -3.0011    5.6576   15.8029 C   0  0  0  0  0  0  0  0  0  0  0  0
   -3.7518    5.6911   17.0102 O   0  0  0  0  0  0  0  0  0  0  0  0
   -3.0399    6.2941   18.0936 C   0  0  0  0  0  0  0  0  0  0  0  0
   -2.1025    5.2913   18.7911 C   0  0  2  0  0  0  0  0  0  0  0  0
   -2.9077    4.1018   19.3499 C   0  0  0  0  0  0  0  0  0  0  0  0
   -2.1361    3.6967   20.5965 C   0  0  0  0  0  0  0  0  0  0  0  0
   -1.6779    5.0347   21.1490 C   0  0  0  0  0  0  0  0  0  0  0  0
   -1.3884    5.8244   19.9637 N   0  0  0  0  0  0  0  0  0  0  0  0
   -0.4921    6.8661   20.0474 C   0  0  0  0  0  0  0  0  0  0  0  0
   -0.0528    7.2895   21.1141 O   0  0  0  0  0  0  0  0  0  0  0  0
   -0.0465    7.4967   18.7788 C   0  0  0  0  0  0  0  0  0  0  0  0
    0.6772    6.7632   17.7486 C   0  0  0  0  0  0  0  0  0  0  0  0
    1.0928    7.3463   16.6028 C   0  0  0  0  0  0  0  0  0  0  0  0
    1.7914    6.6592   15.6298 N   0  0  0  0  0  0  0  0  0  0  0  0
    0.7931    8.7404   16.4162 C   0  0  0  0  0  0  0  0  0  0  0  0
    1.0047    9.5459   15.3984 N   0  0  0  0  0  0  0  0  0  0  0  0
    0.5107   10.7427   15.8435 C   0  0  0  0  0  0  0  0  0  0  0  0
    0.5548   12.0378   14.9685 C   0  0  0  0  0  0  0  0  0  0  0  0
    0.0804   13.2814   15.3412 C   0  0  0  0  0  0  0  0  0  0  0  0
    0.3233   14.1534   14.2518 C   0  0  0  0  0  0  0  0  0  0  0  0
    0.9298   13.3902   13.2813 C   0  0  0  0  0  0  0  0  0  0  0  0
    1.4932   14.0247   11.5788 Br  0  0  0  0  0  0  0  0  0  0  0  0
    1.0737   12.1078   13.7055 O   0  0  0  0  0  0  0  0  0  0  0  0
   -0.0197   10.7197   17.0731 N   0  0  0  0  0  0  0  0  0  0  0  0
    0.1509    9.4295   17.4439 N   0  0  0  0  0  0  0  0  0  0  0  0
   -0.2594    8.8136   18.6195 C   0  0  0  0  0  0  0  0  0  0  0  0
  1  2  1  0
  2  3  1  0
  4  3  1  1
  4  5  1  0
  5  6  1  0
  6  7  1  0
  7  8  1  0
  8  9  1  0
  9 10  2  0
  9 11  1  0
 11 12  1  0
 12 13  2  0
 13 14  1  0
 13 15  1  0
 15 16  2  0
 16 17  1  0
 17 18  1  0
 18 19  2  0
 19 20  1  0
 20 21  2  0
 21 22  1  0
 21 23  1  0
 17 24  2  0
 24 25  1  0
 25 26  1  0
  8  4  1  0
 26 11  2  0
 25 15  1  0
 23 18  1  0
M  END
$$$$
