
     RDKit          3D

 37 40  0  0  0  0  0  0  0  0999 V2000
   -1.7264   14.2491   12.8819 C   0  0  0  0  0  0  0  0  0  0  0  0
   -1.6328   13.6268   11.4972 C   0  0  0  0  0  0  0  0  0  0  0  0
   -0.3518   12.8119   11.2808 C   0  0  0  0  0  0  0  0  0  0  0  0
   -0.2784   11.6186   12.1188 N   0  0  0  0  0  0  0  0  0  0  0  0
    0.5039   11.7085   13.2867 C   0  0  0  0  0  0  0  0  0  0  0  0
    1.1194   12.7157   13.6258 O   0  0  0  0  0  0  0  0  0  0  0  0
    0.5076   10.4903   14.0623 C   0  0  0  0  0  0  0  0  0  0  0  0
    1.1385   10.2195   15.2516 N   0  0  0  0  0  0  0  0  0  0  0  0
    0.8306    8.9666   15.5539 C   0  0  0  0  0  0  0  0  0  0  0  0
    1.2633    8.2415   16.7537 C   0  0  0  0  0  0  0  0  0  0  0  0
    1.1209    6.8537   16.8910 C   0  0  0  0  0  0  0  0  0  0  0  0
    1.5319    6.1983   18.0611 C   0  0  0  0  0  0  0  0  0  0  0  0
    2.0895    6.9221   19.1137 C   0  0  0  0  0  0  0  0  0  0  0  0
    2.5090    6.4142   20.3118 O   0  0  0  0  0  0  0  0  0  0  0  0
    2.1731    5.0688   20.6201 C   0  0  0  0  0  0  0  0  0  0  0  0
    0.6799    4.8006   20.8553 C   0  0  0  0  0  0  0  0  0  0  0  0
    0.1778    3.7276   20.5301 O   0  0  0  0  0  0  0  0  0  0  0  0
    0.0402    5.8621   21.4641 N   0  0  0  0  0  0  0  0  0  0  0  0
   -1.3190    5.9971   21.8316 C   0  0  0  0  0  0  0  0  0  0  0  0
   -2.2357    4.9516   21.6677 C   0  0  0  0  0  0  0  0  0  0  0  0
   -3.5753    5.1044   22.0338 C   0  0  0  0  0  0  0  0  0  0  0  0
   -4.0203    6.3052   22.5723 C   0  0  0  0  0  0  0  0  0  0  0  0
   -3.1263    7.3607   22.7456 C   0  0  0  0  0  0  0  0  0  0  0  0
   -1.7763    7.2233   22.3764 C   0  0  0  0  0  0  0  0  0  0  0  0
   -0.8382    8.3825   22.5631 C   0  0  0  0  0  0  0  0  0  0  0  0
   -1.4002    9.7448   22.8796 C   0  0  0  0  0  0  0  0  0  0  0  0
    0.3778    8.2192   22.4587 O   0  0  0  0  0  0  0  0  0  0  0  0
    2.2510    8.3006   18.9783 C   0  0  0  0  0  0  0  0  0  0  0  0
    1.8438    8.9536   17.8111 C   0  0  0  0  0  0  0  0  0  0  0  0
    0.0068    8.4390   14.5780 N   0  0  0  0  0  0  0  0  0  0  0  0
   -0.1996    9.4044   13.6386 C   0  0  0  0  0  0  0  0  0  0  0  0
   -0.9617    9.3365   12.4928 N   0  0  0  0  0  0  0  0  0  0  0  0
   -1.7302    8.1561   12.0974 C   0  0  0  0  0  0  0  0  0  0  0  0
   -3.0412    8.0008   12.8733 C   0  0  0  0  0  0  0  0  0  0  0  0
   -4.0421    9.1111   12.5932 C   0  0  0  0  0  0  0  0  0  0  0  0
   -1.0174   10.4933   11.6912 C   0  0  0  0  0  0  0  0  0  0  0  0
   -1.6919   10.5198   10.6576 O   0  0  0  0  0  0  0  0  0  0  0  0
  1  2  1  0
  2  3  1  0
  3  4  1  0
  4  5  1  0
  5  6  2  0
  5  7  1  0
  7  8  1  0
  8  9  2  0
  9 10  1  0
 10 11  1  0
 11 12  2  0
 12 13  1  0
 13 14  1  0
 14 15  1  0
 15 16  1  0
 16 17  2  0
 16 18  1  0
 18 19  1  0
 19 20  2  0
 20 21  1  0
 21 22  2  0
 22 23  1  0
 23 24  2  0
 24 25  1  0
 25 26  1  0
 25 27  2  0
 13 28  2  0
 28 29  1  0
  9 30  1  0
 30 31  1  0
 31 32  1  0
 32 33  1  0
 33 34  1  0
 34 35  1  0
 32 36  1  0
 36 37  2  0
 36  4  1  0
 31  7  2  0
 29 10  2  0
 24 19  1  0
M  END
$$$$
