
     RDKit          3D

 23 25  0  0  0  0  0  0  0  0999 V2000
   -2.5779    1.2504   14.9282 C   0  0  0  0  0  0  0  0  0  0  0  0
   -2.5566    2.7114   15.3465 C   0  0  0  0  0  0  0  0  0  0  0  0
   -1.3915    3.4612   14.7001 C   0  0  0  0  0  0  0  0  0  0  0  0
   -1.3468    4.8638   15.1130 N   0  0  0  0  0  0  0  0  0  0  0  0
   -2.2376    5.7834   14.4136 C   0  0  0  0  0  0  0  0  0  0  0  0
   -0.6523    5.1715   16.2758 C   0  0  0  0  0  0  0  0  0  0  0  0
    0.0492    4.3708   16.8896 O   0  0  0  0  0  0  0  0  0  0  0  0
   -0.7791    6.5552   16.7971 C   0  0  0  0  0  0  0  0  0  0  0  0
   -1.9821    7.0152   17.4763 C   0  0  0  0  0  0  0  0  0  0  0  0
   -2.1025    8.2737   17.9529 C   0  0  0  0  0  0  0  0  0  0  0  0
   -3.2500    8.7222   18.5819 N   0  0  0  0  0  0  0  0  0  0  0  0
   -0.9782    9.1579   17.7986 C   0  0  0  0  0  0  0  0  0  0  0  0
   -0.7913   10.4014   18.1848 N   0  0  0  0  0  0  0  0  0  0  0  0
    0.4787   10.6724   17.7519 C   0  0  0  0  0  0  0  0  0  0  0  0
    1.1555   12.0637   17.9788 C   0  0  0  0  0  0  0  0  0  0  0  0
    2.4292   12.4180   17.5752 C   0  0  0  0  0  0  0  0  0  0  0  0
    2.6278   13.7594   17.9840 C   0  0  0  0  0  0  0  0  0  0  0  0
    1.4652   14.1421   18.6118 C   0  0  0  0  0  0  0  0  0  0  0  0
    1.1426   15.8543   19.3753 Br  0  0  0  0  0  0  0  0  0  0  0  0
    0.5678   13.1224   18.6137 O   0  0  0  0  0  0  0  0  0  0  0  0
    1.0962    9.6633   17.1238 N   0  0  0  0  0  0  0  0  0  0  0  0
    0.1667    8.6800   17.1614 N   0  0  0  0  0  0  0  0  0  0  0  0
    0.2669    7.3863   16.6656 C   0  0  0  0  0  0  0  0  0  0  0  0
  1  2  1  0
  2  3  1  0
  3  4  1  0
  4  5  1  0
  4  6  1  0
  6  7  2  0
  6  8  1  0
  8  9  1  0
  9 10  2  0
 10 11  1  0
 10 12  1  0
 12 13  2  0
 13 14  1  0
 14 15  1  0
 15 16  2  0
 16 17  1  0
 17 18  2  0
 18 19  1  0
 18 20  1  0
 14 21  2  0
 21 22  1  0
 22 23  1  0
 23  8  2  0
 22 12  1  0
 20 15  1  0
M  END
$$$$
