mol_4e5bf41399da
     RDKit          3D

 59 62  0  0  0  0  0  0  0  0999 V2000
   -6.1699   -0.6514    2.3685 C   0  0  0  0  0  0  0  0  0  0  0  0
   -6.5626    0.6356    1.7149 C   0  0  0  0  0  0  0  0  0  0  0  0
   -6.1816    1.0829    0.5078 C   0  0  0  0  0  0  0  0  0  0  0  0
   -5.2928    0.3595   -0.4110 C   0  0  0  0  0  0  0  0  0  0  0  0
   -5.8801   -0.5743   -1.2647 C   0  0  0  0  0  0  0  0  0  0  0  0
   -5.0881   -1.3051   -2.1361 C   0  0  0  0  0  0  0  0  0  0  0  0
   -3.7076   -1.1012   -2.1742 C   0  0  0  0  0  0  0  0  0  0  0  0
   -3.0676   -1.9489   -3.0370 O   0  0  0  0  0  0  0  0  0  0  0  0
   -3.0647   -0.1628   -1.3344 C   0  0  0  0  0  0  0  0  0  0  0  0
   -3.8886    0.5731   -0.4351 C   0  0  0  0  0  0  0  0  0  0  0  0
   -3.3125    1.5859    0.5383 C   0  0  0  0  0  0  0  0  0  0  0  0
   -1.8368    1.8803    0.3230 C   0  0  0  0  0  0  0  0  0  0  0  0
   -1.6712    2.8488   -0.7202 O   0  0  0  0  0  0  0  0  0  0  0  0
   -1.1031    0.5807   -0.0173 C   0  0  0  0  0  0  0  0  0  0  0  0
    0.4124    0.8102    0.0291 C   0  0  0  0  0  0  0  0  0  0  0  0
    1.1302   -0.3287   -0.6797 C   0  0  0  0  0  0  0  0  0  0  0  0
    2.6603   -0.2349   -0.5565 C   0  0  0  0  0  0  0  0  0  0  0  0
    3.1713   -0.5802    0.8457 C   0  0  0  0  0  0  0  0  0  0  0  0
    4.6271   -0.4726    0.9179 N   0  0  0  0  0  0  0  0  0  0  0  0
    5.3986   -1.6838    0.6631 C   0  0  0  0  0  0  0  0  0  0  0  0
    6.8639   -1.4283    0.3608 C   0  0  0  0  0  0  0  0  0  0  0  0
    7.4302   -0.4884    1.4072 C   0  0  0  0  0  0  0  0  0  0  0  0
    6.6973    0.8379    1.3396 C   0  0  0  0  0  0  0  0  0  0  0  0
    5.1850    0.7240    1.3423 C   0  0  0  0  0  0  0  0  0  0  0  0
    4.4995    1.7031    1.6424 O   0  0  0  0  0  0  0  0  0  0  0  0
    0.7140   -0.2389   -2.1407 C   0  0  0  0  0  0  0  0  0  0  0  0
   -0.7846   -0.2435   -2.3657 C   0  0  0  0  0  0  0  0  0  0  0  0
   -1.1900   -0.4539   -3.5137 O   0  0  0  0  0  0  0  0  0  0  0  0
   -1.6225    0.0380   -1.2927 N   0  0  0  0  0  0  0  0  0  0  0  0
   -5.4802   -1.2495    1.7672 H   0  0  0  0  0  0  0  0  0  0  0  0
   -7.0623   -1.2549    2.5612 H   0  0  0  0  0  0  0  0  0  0  0  0
   -5.6845   -0.4434    3.3272 H   0  0  0  0  0  0  0  0  0  0  0  0
   -7.2314    1.2656    2.2992 H   0  0  0  0  0  0  0  0  0  0  0  0
   -6.5394    2.0442    0.1452 H   0  0  0  0  0  0  0  0  0  0  0  0
   -6.9535   -0.7478   -1.2453 H   0  0  0  0  0  0  0  0  0  0  0  0
   -5.5414   -2.0482   -2.7876 H   0  0  0  0  0  0  0  0  0  0  0  0
   -2.3548   -1.4294   -3.4668 H   0  0  0  0  0  0  0  0  0  0  0  0
   -3.8730    2.5255    0.4625 H   0  0  0  0  0  0  0  0  0  0  0  0
   -3.4401    1.1796    1.5498 H   0  0  0  0  0  0  0  0  0  0  0  0
   -1.4275    2.3321    1.2337 H   0  0  0  0  0  0  0  0  0  0  0  0
   -2.0405    2.4593   -1.5354 H   0  0  0  0  0  0  0  0  0  0  0  0
   -1.3298   -0.1791    0.7456 H   0  0  0  0  0  0  0  0  0  0  0  0
    0.6794    1.7640   -0.4448 H   0  0  0  0  0  0  0  0  0  0  0  0
    0.7218    0.8905    1.0770 H   0  0  0  0  0  0  0  0  0  0  0  0
    0.7974   -1.2901   -0.2663 H   0  0  0  0  0  0  0  0  0  0  0  0
    3.1229   -0.9236   -1.2752 H   0  0  0  0  0  0  0  0  0  0  0  0
    2.9984    0.7709   -0.8378 H   0  0  0  0  0  0  0  0  0  0  0  0
    2.8819   -1.6005    1.1236 H   0  0  0  0  0  0  0  0  0  0  0  0
    2.7276    0.0902    1.5883 H   0  0  0  0  0  0  0  0  0  0  0  0
    4.9434   -2.2207   -0.1766 H   0  0  0  0  0  0  0  0  0  0  0  0
    5.3021   -2.3151    1.5545 H   0  0  0  0  0  0  0  0  0  0  0  0
    6.9699   -0.9836   -0.6364 H   0  0  0  0  0  0  0  0  0  0  0  0
    7.4154   -2.3746    0.3560 H   0  0  0  0  0  0  0  0  0  0  0  0
    7.3209   -0.9290    2.4056 H   0  0  0  0  0  0  0  0  0  0  0  0
    8.5007   -0.3312    1.2358 H   0  0  0  0  0  0  0  0  0  0  0  0
    6.9964    1.4612    2.1898 H   0  0  0  0  0  0  0  0  0  0  0  0
    6.9764    1.3707    0.4226 H   0  0  0  0  0  0  0  0  0  0  0  0
    1.1303   -1.0919   -2.6907 H   0  0  0  0  0  0  0  0  0  0  0  0
    1.1080    0.6747   -2.6037 H   0  0  0  0  0  0  0  0  0  0  0  0
  1  2  1  0
  2  3  2  3
  3  4  1  0
  4  5  1  0
  5  6  2  0
  6  7  1  0
  7  8  1  0
  7  9  2  0
  9 10  1  0
 10 11  1  0
 11 12  1  0
 12 13  1  0
 12 14  1  0
 14 15  1  0
 15 16  1  0
 16 17  1  0
 17 18  1  0
 18 19  1  0
 19 20  1  0
 20 21  1  0
 21 22  1  0
 22 23  1  0
 23 24  1  0
 24 25  2  0
 16 26  1  0
 26 27  1  0
 27 28  2  0
 27 29  1  0
 10  4  2  0
 29 14  1  0
 29  9  1  0
 24 19  1  0
  1 30  1  0
  1 31  1  0
  1 32  1  0
  2 33  1  0
  3 34  1  0
  5 35  1  0
  6 36  1  0
  8 37  1  0
 11 38  1  0
 11 39  1  0
 12 40  1  0
 13 41  1  0
 14 42  1  0
 15 43  1  0
 15 44  1  0
 16 45  1  0
 17 46  1  0
 17 47  1  0
 18 48  1  0
 18 49  1  0
 20 50  1  0
 20 51  1  0
 21 52  1  0
 21 53  1  0
 22 54  1  0
 22 55  1  0
 23 56  1  0
 23 57  1  0
 26 58  1  0
 26 59  1  0
M  END
>  <smiles>
CC=Cc1ccc(O)c2c1CC(O)C1CC(CCN3CCCCC3=O)CC(=O)N21

$$$$
