mol_385dbaa64974
     RDKit          3D

 44 46  0  0  0  0  0  0  0  0999 V2000
    0.5601   -3.7132    0.0415 O   0  0  0  0  0  0  0  0  0  0  0  0
    1.6148   -3.2237    0.4096 C   0  0  0  0  0  0  0  0  0  0  0  0
    2.3257   -3.5479    1.7008 C   0  0  0  0  0  0  0  0  0  0  0  0
    3.7196   -2.9721    1.4801 C   0  0  0  0  0  0  0  0  0  0  0  0
    3.4835   -1.8085    0.5369 C   0  0  0  0  0  0  0  0  0  0  0  0
    2.3467   -2.2400   -0.2348 N   0  0  0  0  0  0  0  0  0  0  0  0
    1.9089   -1.5600   -1.4376 C   0  0  0  0  0  0  0  0  0  0  0  0
    1.2997   -0.2131   -1.1329 C   0  0  0  0  0  0  0  0  0  0  0  0
    0.0097   -0.1368   -0.5744 C   0  0  0  0  0  0  0  0  0  0  0  0
   -0.6038    1.0816   -0.2457 C   0  0  0  0  0  0  0  0  0  0  0  0
   -1.8728    1.1451    0.3073 N   0  0  0  0  0  0  0  0  0  0  0  0
   -2.7288    2.3128    0.0652 C   0  0  0  0  0  0  0  0  0  0  0  0
   -4.1964    2.0150    0.3883 C   0  0  0  0  0  0  0  0  0  0  0  0
   -4.6212    0.6515   -0.1520 C   0  0  0  0  0  0  0  0  0  0  0  0
   -3.6920   -0.4788    0.3075 C   0  0  0  0  0  0  0  0  0  0  0  0
   -2.4628    0.0344    1.0537 C   0  0  0  0  0  0  0  0  0  0  0  0
    0.1369    2.2434   -0.5159 C   0  0  0  0  0  0  0  0  0  0  0  0
    1.4273    2.2065   -1.0779 C   0  0  0  0  0  0  0  0  0  0  0  0
    2.1899    3.4850   -1.3109 C   0  0  0  0  0  0  0  0  0  0  0  0
    2.9354    3.8476   -0.2303 F   0  0  0  0  0  0  0  0  0  0  0  0
    1.3872    4.5508   -1.5869 F   0  0  0  0  0  0  0  0  0  0  0  0
    3.0645    3.4017   -2.3534 F   0  0  0  0  0  0  0  0  0  0  0  0
    2.0059    0.9673   -1.3733 C   0  0  0  0  0  0  0  0  0  0  0  0
    2.3522   -4.6259    1.8758 H   0  0  0  0  0  0  0  0  0  0  0  0
    1.8095   -3.0433    2.5234 H   0  0  0  0  0  0  0  0  0  0  0  0
    4.3514   -3.7243    0.9912 H   0  0  0  0  0  0  0  0  0  0  0  0
    4.2109   -2.6735    2.4102 H   0  0  0  0  0  0  0  0  0  0  0  0
    3.2164   -0.8973    1.0819 H   0  0  0  0  0  0  0  0  0  0  0  0
    4.3436   -1.6197   -0.1115 H   0  0  0  0  0  0  0  0  0  0  0  0
    1.1691   -2.1785   -1.9596 H   0  0  0  0  0  0  0  0  0  0  0  0
    2.7722   -1.4606   -2.1054 H   0  0  0  0  0  0  0  0  0  0  0  0
   -0.5246   -1.0735   -0.4253 H   0  0  0  0  0  0  0  0  0  0  0  0
   -2.6663    2.6036   -0.9914 H   0  0  0  0  0  0  0  0  0  0  0  0
   -2.3959    3.1630    0.6716 H   0  0  0  0  0  0  0  0  0  0  0  0
   -4.8342    2.8020   -0.0299 H   0  0  0  0  0  0  0  0  0  0  0  0
   -4.3480    2.0377    1.4749 H   0  0  0  0  0  0  0  0  0  0  0  0
   -4.6259    0.6855   -1.2488 H   0  0  0  0  0  0  0  0  0  0  0  0
   -5.6510    0.4336    0.1534 H   0  0  0  0  0  0  0  0  0  0  0  0
   -4.2428   -1.1724    0.9536 H   0  0  0  0  0  0  0  0  0  0  0  0
   -3.3780   -1.0575   -0.5702 H   0  0  0  0  0  0  0  0  0  0  0  0
   -2.7580    0.3968    2.0471 H   0  0  0  0  0  0  0  0  0  0  0  0
   -1.7672   -0.7870    1.2533 H   0  0  0  0  0  0  0  0  0  0  0  0
   -0.2806    3.2168   -0.2649 H   0  0  0  0  0  0  0  0  0  0  0  0
    3.0095    0.9262   -1.7943 H   0  0  0  0  0  0  0  0  0  0  0  0
  1  2  2  0
  2  3  1  0
  3  4  1  0
  4  5  1  0
  5  6  1  0
  6  7  1  0
  7  8  1  0
  8  9  2  0
  9 10  1  0
 10 11  1  0
 11 12  1  0
 12 13  1  0
 13 14  1  0
 14 15  1  0
 15 16  1  0
 10 17  2  0
 17 18  1  0
 18 19  1  0
 19 20  1  0
 19 21  1  0
 19 22  1  0
 18 23  2  0
  6  2  1  0
 23  8  1  0
 16 11  1  0
  3 24  1  0
  3 25  1  0
  4 26  1  0
  4 27  1  0
  5 28  1  0
  5 29  1  0
  7 30  1  0
  7 31  1  0
  9 32  1  0
 12 33  1  0
 12 34  1  0
 13 35  1  0
 13 36  1  0
 14 37  1  0
 14 38  1  0
 15 39  1  0
 15 40  1  0
 16 41  1  0
 16 42  1  0
 17 43  1  0
 23 44  1  0
M  END
>  <smiles>
O=C1CCCN1Cc1cc(N2CCCCC2)cc(C(F)(F)F)c1

$$$$
