mol_c982a8ca51bf
     RDKit          3D

 55 57  0  0  0  0  0  0  0  0999 V2000
   -7.1569   -0.7200   -1.3478 C   0  0  0  0  0  0  0  0  0  0  0  0
   -5.6797   -0.5351   -1.4824 C   0  0  0  0  0  0  0  0  0  0  0  0
   -4.9240    0.4528   -0.9660 C   0  0  0  0  0  0  0  0  0  0  0  0
   -5.3902    1.6037   -0.1210 C   0  0  0  0  0  0  0  0  0  0  0  0
   -3.4661    0.4321   -1.2427 C   0  0  0  0  0  0  0  0  0  0  0  0
   -3.0443    1.1260   -2.3816 C   0  0  0  0  0  0  0  0  0  0  0  0
   -1.7022    1.1592   -2.7186 C   0  0  0  0  0  0  0  0  0  0  0  0
   -0.7709    0.4920   -1.9196 C   0  0  0  0  0  0  0  0  0  0  0  0
    0.5439    0.5742   -2.3052 O   0  0  0  0  0  0  0  0  0  0  0  0
   -1.1375   -0.2404   -0.7506 C   0  0  0  0  0  0  0  0  0  0  0  0
   -0.2325   -0.9557    0.1096 C   0  0  0  0  0  0  0  0  0  0  0  0
    1.2695   -1.0273   -0.1077 C   0  0  0  0  0  0  0  0  0  0  0  0
    1.9960    0.1951    0.4634 C   0  0  0  0  0  0  0  0  0  0  0  0
    3.4511    0.0818    0.3253 N   0  0  0  0  0  0  0  0  0  0  0  0
    4.0466    0.5129   -0.9343 C   0  0  0  0  0  0  0  0  0  0  0  0
    4.8838    1.7770   -0.7723 C   0  0  0  0  0  0  0  0  0  0  0  0
    6.2748    1.5125   -0.1993 C   0  0  0  0  0  0  0  0  0  0  0  0
    6.2781    0.8709    1.1864 C   0  0  0  0  0  0  0  0  0  0  0  0
    5.6803   -0.5319    1.2087 C   0  0  0  0  0  0  0  0  0  0  0  0
    4.1720   -0.5077    1.3507 C   0  0  0  0  0  0  0  0  0  0  0  0
    3.6350   -0.9982    2.3445 O   0  0  0  0  0  0  0  0  0  0  0  0
   -0.7114   -1.6297    1.2528 C   0  0  0  0  0  0  0  0  0  0  0  0
   -2.0648   -1.6359    1.5635 C   0  0  0  0  0  0  0  0  0  0  0  0
   -2.6033   -2.3369    2.7546 C   0  0  0  0  0  0  0  0  0  0  0  0
   -3.7688   -2.3571    3.1053 O   0  0  0  0  0  0  0  0  0  0  0  0
   -1.6548   -2.9850    3.4527 O   0  0  0  0  0  0  0  0  0  0  0  0
   -2.9541   -0.9581    0.7315 C   0  0  0  0  0  0  0  0  0  0  0  0
   -2.5279   -0.2561   -0.4198 C   0  0  0  0  0  0  0  0  0  0  0  0
   -7.6534    0.0906   -0.8115 H   0  0  0  0  0  0  0  0  0  0  0  0
   -7.6095   -0.7844   -2.3425 H   0  0  0  0  0  0  0  0  0  0  0  0
   -7.3648   -1.6551   -0.8186 H   0  0  0  0  0  0  0  0  0  0  0  0
   -5.1915   -1.3114   -2.0730 H   0  0  0  0  0  0  0  0  0  0  0  0
   -5.2633    2.5490   -0.6595 H   0  0  0  0  0  0  0  0  0  0  0  0
   -6.4418    1.5259    0.1640 H   0  0  0  0  0  0  0  0  0  0  0  0
   -4.8138    1.6601    0.8091 H   0  0  0  0  0  0  0  0  0  0  0  0
   -3.7671    1.6443   -3.0081 H   0  0  0  0  0  0  0  0  0  0  0  0
   -1.3995    1.7107   -3.6034 H   0  0  0  0  0  0  0  0  0  0  0  0
    0.5974    1.0381   -3.1565 H   0  0  0  0  0  0  0  0  0  0  0  0
    1.6600   -1.9318    0.3798 H   0  0  0  0  0  0  0  0  0  0  0  0
    1.5067   -1.1928   -1.1633 H   0  0  0  0  0  0  0  0  0  0  0  0
    1.7509    0.2987    1.5280 H   0  0  0  0  0  0  0  0  0  0  0  0
    1.6742    1.1278   -0.0128 H   0  0  0  0  0  0  0  0  0  0  0  0
    3.2433    0.7042   -1.6539 H   0  0  0  0  0  0  0  0  0  0  0  0
    4.6486   -0.3065   -1.3424 H   0  0  0  0  0  0  0  0  0  0  0  0
    5.0132    2.2368   -1.7598 H   0  0  0  0  0  0  0  0  0  0  0  0
    4.3554    2.5075   -0.1478 H   0  0  0  0  0  0  0  0  0  0  0  0
    6.8420    0.8813   -0.8949 H   0  0  0  0  0  0  0  0  0  0  0  0
    6.8119    2.4673   -0.1422 H   0  0  0  0  0  0  0  0  0  0  0  0
    7.3212    0.8055    1.5198 H   0  0  0  0  0  0  0  0  0  0  0  0
    5.7581    1.5234    1.8983 H   0  0  0  0  0  0  0  0  0  0  0  0
    6.0733   -1.0639    2.0843 H   0  0  0  0  0  0  0  0  0  0  0  0
    5.9682   -1.1208    0.3319 H   0  0  0  0  0  0  0  0  0  0  0  0
   -0.0081   -2.1499    1.9026 H   0  0  0  0  0  0  0  0  0  0  0  0
   -2.1425   -3.3898    4.1996 H   0  0  0  0  0  0  0  0  0  0  0  0
   -4.0111   -0.9799    0.9959 H   0  0  0  0  0  0  0  0  0  0  0  0
  1  2  1  0
  2  3  2  3
  3  4  1  0
  3  5  1  0
  5  6  1  0
  6  7  2  0
  7  8  1  0
  8  9  1  0
  8 10  2  0
 10 11  1  0
 11 12  1  0
 12 13  1  0
 13 14  1  0
 14 15  1  0
 15 16  1  0
 16 17  1  0
 17 18  1  0
 18 19  1  0
 19 20  1  0
 20 21  2  0
 11 22  2  0
 22 23  1  0
 23 24  1  0
 24 25  2  0
 24 26  1  0
 23 27  2  0
 27 28  1  0
 28  5  2  0
 28 10  1  0
 20 14  1  0
  1 29  1  0
  1 30  1  0
  1 31  1  0
  2 32  1  0
  4 33  1  0
  4 34  1  0
  4 35  1  0
  6 36  1  0
  7 37  1  0
  9 38  1  0
 12 39  1  0
 12 40  1  0
 13 41  1  0
 13 42  1  0
 15 43  1  0
 15 44  1  0
 16 45  1  0
 16 46  1  0
 17 47  1  0
 17 48  1  0
 18 49  1  0
 18 50  1  0
 19 51  1  0
 19 52  1  0
 22 53  1  0
 26 54  1  0
 27 55  1  0
M  END
>  <smiles>
CC=C(C)c1ccc(O)c2c(CCN3CCCCCC3=O)cc(C(=O)O)cc12

$$$$
