mol_1d327f695f5f
     RDKit          3D

 57 59  0  0  0  0  0  0  0  0999 V2000
    7.0252    0.8829    1.9699 C   0  0  0  0  0  0  0  0  0  0  0  0
    6.8594    0.4556    0.5110 C   0  0  0  0  0  0  0  0  0  0  0  0
    5.8211    1.3260   -0.2165 C   0  0  0  0  0  0  0  0  0  0  0  0
    4.4301    0.6981   -0.2242 C   0  0  0  0  0  0  0  0  0  0  0  0
    4.4267   -0.6459   -0.8062 N   0  0  0  0  0  0  0  0  0  0  0  0
    3.3260   -1.2610   -1.3760 C   0  0  0  0  0  0  0  0  0  0  0  0
    3.3955   -2.3223   -1.9915 O   0  0  0  0  0  0  0  0  0  0  0  0
    2.1374   -0.6106   -1.2060 N   0  0  0  0  0  0  0  0  0  0  0  0
    0.9172   -1.1321   -1.7685 C   0  0  0  0  0  0  0  0  0  0  0  0
   -0.1997   -0.1320   -1.6341 C   0  0  0  0  0  0  0  0  0  0  0  0
   -0.4635    0.7845   -2.6636 C   0  0  0  0  0  0  0  0  0  0  0  0
   -1.4646    1.7491   -2.5220 C   0  0  0  0  0  0  0  0  0  0  0  0
   -2.2133    1.8102   -1.3478 C   0  0  0  0  0  0  0  0  0  0  0  0
   -1.9634    0.8937   -0.3227 C   0  0  0  0  0  0  0  0  0  0  0  0
   -2.7158    0.9627    0.9477 C   0  0  0  0  0  0  0  0  0  0  0  0
   -2.0727    1.2081    1.9654 O   0  0  0  0  0  0  0  0  0  0  0  0
   -4.0915    0.7391    0.9261 N   0  0  0  0  0  0  0  0  0  0  0  0
   -4.8508    0.9445    2.1496 C   0  0  0  0  0  0  0  0  0  0  0  0
   -5.6135   -0.3113    2.5647 C   0  0  0  0  0  0  0  0  0  0  0  0
   -6.0203   -1.2051    1.3909 C   0  0  0  0  0  0  0  0  0  0  0  0
   -6.1452   -0.4505    0.0646 C   0  0  0  0  0  0  0  0  0  0  0  0
   -7.3708    0.4669    0.0377 C   0  0  0  0  0  0  0  0  0  0  0  0
   -4.8398    0.3005   -0.2572 C   0  0  0  0  0  0  0  0  0  0  0  0
   -0.9501   -0.0612   -0.4522 C   0  0  0  0  0  0  0  0  0  0  0  0
    5.6970   -1.3697   -0.8121 C   0  0  0  0  0  0  0  0  0  0  0  0
    6.5219   -1.0425    0.4273 C   0  0  0  0  0  0  0  0  0  0  0  0
    6.0852    0.7855    2.5235 H   0  0  0  0  0  0  0  0  0  0  0  0
    7.7808    0.2683    2.4705 H   0  0  0  0  0  0  0  0  0  0  0  0
    7.3483    1.9273    2.0342 H   0  0  0  0  0  0  0  0  0  0  0  0
    7.8260    0.6192    0.0158 H   0  0  0  0  0  0  0  0  0  0  0  0
    5.7782    2.3327    0.2150 H   0  0  0  0  0  0  0  0  0  0  0  0
    6.1460    1.4525   -1.2581 H   0  0  0  0  0  0  0  0  0  0  0  0
    3.7498    1.3432   -0.7903 H   0  0  0  0  0  0  0  0  0  0  0  0
    4.0394    0.6130    0.7964 H   0  0  0  0  0  0  0  0  0  0  0  0
    2.0691    0.1353   -0.5342 H   0  0  0  0  0  0  0  0  0  0  0  0
    0.6655   -2.0632   -1.2468 H   0  0  0  0  0  0  0  0  0  0  0  0
    1.0839   -1.3915   -2.8209 H   0  0  0  0  0  0  0  0  0  0  0  0
    0.1248    0.7588   -3.5797 H   0  0  0  0  0  0  0  0  0  0  0  0
   -1.6484    2.4611   -3.3230 H   0  0  0  0  0  0  0  0  0  0  0  0
   -2.9723    2.5782   -1.2261 H   0  0  0  0  0  0  0  0  0  0  0  0
   -4.2090    1.2711    2.9747 H   0  0  0  0  0  0  0  0  0  0  0  0
   -5.5421    1.7731    1.9614 H   0  0  0  0  0  0  0  0  0  0  0  0
   -4.9965   -0.9049    3.2508 H   0  0  0  0  0  0  0  0  0  0  0  0
   -6.5002   -0.0136    3.1371 H   0  0  0  0  0  0  0  0  0  0  0  0
   -5.2551   -1.9838    1.2701 H   0  0  0  0  0  0  0  0  0  0  0  0
   -6.9512   -1.7324    1.6307 H   0  0  0  0  0  0  0  0  0  0  0  0
   -6.3061   -1.1880   -0.7333 H   0  0  0  0  0  0  0  0  0  0  0  0
   -7.4718    0.9423   -0.9440 H   0  0  0  0  0  0  0  0  0  0  0  0
   -8.2840   -0.1100    0.2198 H   0  0  0  0  0  0  0  0  0  0  0  0
   -7.3248    1.2599    0.7875 H   0  0  0  0  0  0  0  0  0  0  0  0
   -4.1932   -0.3660   -0.8394 H   0  0  0  0  0  0  0  0  0  0  0  0
   -5.0388    1.1822   -0.8765 H   0  0  0  0  0  0  0  0  0  0  0  0
   -0.7457   -0.7408    0.3733 H   0  0  0  0  0  0  0  0  0  0  0  0
    5.5176   -2.4494   -0.8597 H   0  0  0  0  0  0  0  0  0  0  0  0
    6.2351   -1.0870   -1.7247 H   0  0  0  0  0  0  0  0  0  0  0  0
    7.4495   -1.6270    0.4255 H   0  0  0  0  0  0  0  0  0  0  0  0
    5.9572   -1.3540    1.3160 H   0  0  0  0  0  0  0  0  0  0  0  0
  1  2  1  0
  2  3  1  0
  3  4  1  0
  4  5  1  0
  5  6  1  0
  6  7  2  0
  6  8  1  0
  8  9  1  0
  9 10  1  0
 10 11  2  0
 11 12  1  0
 12 13  2  0
 13 14  1  0
 14 15  1  0
 15 16  2  0
 15 17  1  0
 17 18  1  0
 18 19  1  0
 19 20  1  0
 20 21  1  0
 21 22  1  0
 21 23  1  0
 14 24  2  0
  5 25  1  0
 25 26  1  0
 26  2  1  0
 24 10  1  0
 23 17  1  0
  1 27  1  0
  1 28  1  0
  1 29  1  0
  2 30  1  0
  3 31  1  0
  3 32  1  0
  4 33  1  0
  4 34  1  0
  8 35  1  0
  9 36  1  0
  9 37  1  0
 11 38  1  0
 12 39  1  0
 13 40  1  0
 18 41  1  0
 18 42  1  0
 19 43  1  0
 19 44  1  0
 20 45  1  0
 20 46  1  0
 21 47  1  0
 22 48  1  0
 22 49  1  0
 22 50  1  0
 23 51  1  0
 23 52  1  0
 24 53  1  0
 25 54  1  0
 25 55  1  0
 26 56  1  0
 26 57  1  0
M  END
>  <smiles>
CC1CCN(C(=O)NCc2cccc(C(=O)N3CCCC(C)C3)c2)CC1

$$$$
