mol_bffa5536fe03
     RDKit          3D

 50 54  0  0  0  0  0  0  0  0999 V2000
   -4.5377    0.0289    1.1291 C   0  0  0  0  0  0  0  0  0  0  0  0
   -3.4026   -0.1774    0.2481 N   0  0  0  0  0  0  0  0  0  0  0  0
   -2.8196    0.9787   -0.4169 C   0  0  0  0  0  0  0  0  0  0  0  0
   -1.4497    1.2506    0.1319 C   0  0  0  0  0  0  0  0  0  0  0  0
   -1.0304    2.5692    0.4430 C   0  0  0  0  0  0  0  0  0  0  0  0
   -1.9674    3.5507    0.2384 O   0  0  0  0  0  0  0  0  0  0  0  0
   -1.6372    4.9008    0.5373 C   0  0  0  0  0  0  0  0  0  0  0  0
   -1.3039    5.0238    1.8437 F   0  0  0  0  0  0  0  0  0  0  0  0
   -0.5867    5.3022   -0.2169 F   0  0  0  0  0  0  0  0  0  0  0  0
    0.2573    2.8057    0.9156 C   0  0  0  0  0  0  0  0  0  0  0  0
    1.1662    1.7574    1.0667 C   0  0  0  0  0  0  0  0  0  0  0  0
    0.7883    0.4424    0.7380 C   0  0  0  0  0  0  0  0  0  0  0  0
    1.4929   -0.7928    0.7510 C   0  0  0  0  0  0  0  0  0  0  0  0
    2.9087   -1.0170    1.1689 C   0  0  0  0  0  0  0  0  0  0  0  0
    3.8059   -0.5563    0.1282 N   0  0  0  0  0  0  0  0  0  0  0  0
    3.9522   -1.2246   -1.1397 C   0  0  0  0  0  0  0  0  0  0  0  0
    4.6720   -0.1970   -1.9916 C   0  0  0  0  0  0  0  0  0  0  0  0
    5.5068    0.5893   -0.9887 C   0  0  0  0  0  0  0  0  0  0  0  0
    4.6935    0.4946    0.2786 C   0  0  0  0  0  0  0  0  0  0  0  0
    4.8432    1.1948    1.2660 O   0  0  0  0  0  0  0  0  0  0  0  0
    0.6022   -1.7500    0.3144 C   0  0  0  0  0  0  0  0  0  0  0  0
   -0.6283   -1.1740    0.0319 N   0  0  0  0  0  0  0  0  0  0  0  0
   -0.5147    0.1972    0.2908 C   0  0  0  0  0  0  0  0  0  0  0  0
   -1.7798   -1.9092   -0.4255 C   0  0  0  0  0  0  0  0  0  0  0  0
   -1.5725   -3.1895   -0.9892 C   0  0  0  0  0  0  0  0  0  0  0  0
   -2.6420   -3.9978   -1.3732 C   0  0  0  0  0  0  0  0  0  0  0  0
   -3.9380   -3.5458   -1.1969 C   0  0  0  0  0  0  0  0  0  0  0  0
   -4.1571   -2.2804   -0.6523 C   0  0  0  0  0  0  0  0  0  0  0  0
   -3.0994   -1.4273   -0.2672 C   0  0  0  0  0  0  0  0  0  0  0  0
   -4.3991    0.9362    1.7276 H   0  0  0  0  0  0  0  0  0  0  0  0
   -4.6532   -0.8031    1.8327 H   0  0  0  0  0  0  0  0  0  0  0  0
   -5.4636    0.1425    0.5555 H   0  0  0  0  0  0  0  0  0  0  0  0
   -3.4850    1.8383   -0.2805 H   0  0  0  0  0  0  0  0  0  0  0  0
   -2.7529    0.8251   -1.5025 H   0  0  0  0  0  0  0  0  0  0  0  0
   -2.4952    5.5441    0.3255 H   0  0  0  0  0  0  0  0  0  0  0  0
    0.6073    3.8012    1.1721 H   0  0  0  0  0  0  0  0  0  0  0  0
    2.1718    1.9669    1.4253 H   0  0  0  0  0  0  0  0  0  0  0  0
    3.1093   -2.0801    1.3421 H   0  0  0  0  0  0  0  0  0  0  0  0
    3.1137   -0.4830    2.1031 H   0  0  0  0  0  0  0  0  0  0  0  0
    4.5578   -2.1239   -0.9871 H   0  0  0  0  0  0  0  0  0  0  0  0
    2.9839   -1.4979   -1.5663 H   0  0  0  0  0  0  0  0  0  0  0  0
    3.9403    0.4732   -2.4604 H   0  0  0  0  0  0  0  0  0  0  0  0
    5.2719   -0.6482   -2.7868 H   0  0  0  0  0  0  0  0  0  0  0  0
    5.6393    1.6297   -1.2945 H   0  0  0  0  0  0  0  0  0  0  0  0
    6.4797    0.1177   -0.8196 H   0  0  0  0  0  0  0  0  0  0  0  0
    0.7541   -2.8158    0.2335 H   0  0  0  0  0  0  0  0  0  0  0  0
   -0.5760   -3.5817   -1.1687 H   0  0  0  0  0  0  0  0  0  0  0  0
   -2.4583   -4.9765   -1.8083 H   0  0  0  0  0  0  0  0  0  0  0  0
   -4.7809   -4.1653   -1.4900 H   0  0  0  0  0  0  0  0  0  0  0  0
   -5.1871   -1.9466   -0.5523 H   0  0  0  0  0  0  0  0  0  0  0  0
  1  2  1  0
  2  3  1  0
  3  4  1  0
  4  5  1  0
  5  6  1  0
  6  7  1  0
  7  8  1  0
  7  9  1  0
  5 10  2  0
 10 11  1  0
 11 12  2  0
 12 13  1  0
 13 14  1  0
 14 15  1  0
 15 16  1  0
 16 17  1  0
 17 18  1  0
 18 19  1  0
 19 20  2  0
 13 21  2  0
 21 22  1  0
 22 23  1  0
 22 24  1  0
 24 25  2  0
 25 26  1  0
 26 27  2  0
 27 28  1  0
 28 29  2  0
 29  2  1  0
 23  4  2  0
 29 24  1  0
 23 12  1  0
 19 15  1  0
  1 30  1  0
  1 31  1  0
  1 32  1  0
  3 33  1  0
  3 34  1  0
  7 35  1  0
 10 36  1  0
 11 37  1  0
 14 38  1  0
 14 39  1  0
 16 40  1  0
 16 41  1  0
 17 42  1  0
 17 43  1  0
 18 44  1  0
 18 45  1  0
 21 46  1  0
 25 47  1  0
 26 48  1  0
 27 49  1  0
 28 50  1  0
M  END
>  <smiles>
CN1Cc2c(OC(F)F)ccc3c(CN4CCCC4=O)cn(c23)-c2ccccc21

$$$$
