mol_c926c602a347
     RDKit          3D

 56 59  0  0  0  0  0  0  0  0999 V2000
   -2.4618   -1.9110    2.4776 C   0  0  0  0  0  0  0  0  0  0  0  0
   -2.7134   -2.2765    1.0211 C   0  0  0  0  0  0  0  0  0  0  0  0
   -2.0041   -1.3283    0.0636 C   0  0  0  0  0  0  0  0  0  0  0  0
   -0.7090   -1.6525   -0.4281 C   0  0  0  0  0  0  0  0  0  0  0  0
   -0.0262   -0.7419   -1.2554 C   0  0  0  0  0  0  0  0  0  0  0  0
   -0.6490    0.4537   -1.6326 C   0  0  0  0  0  0  0  0  0  0  0  0
   -1.9245    0.7915   -1.1715 C   0  0  0  0  0  0  0  0  0  0  0  0
   -2.4991    2.0115   -1.5657 C   0  0  0  0  0  0  0  0  0  0  0  0
   -3.7615    2.3942   -1.1149 C   0  0  0  0  0  0  0  0  0  0  0  0
   -4.4691    1.5569   -0.2555 C   0  0  0  0  0  0  0  0  0  0  0  0
   -5.8179    1.9057    0.2699 C   0  0  0  0  0  0  0  0  0  0  0  0
   -6.4544    1.1875    1.0249 O   0  0  0  0  0  0  0  0  0  0  0  0
   -6.2214    3.1107   -0.2053 O   0  0  0  0  0  0  0  0  0  0  0  0
   -7.5111    3.5138    0.2574 C   0  0  0  0  0  0  0  0  0  0  0  0
   -3.8985    0.3353    0.1384 C   0  0  0  0  0  0  0  0  0  0  0  0
   -2.6204   -0.0877   -0.3076 C   0  0  0  0  0  0  0  0  0  0  0  0
    1.3543   -1.0450   -1.8020 C   0  0  0  0  0  0  0  0  0  0  0  0
    2.1002   -2.0105   -0.9661 N   0  0  0  0  0  0  0  0  0  0  0  0
    3.4022   -2.3407   -1.6012 C   0  0  0  0  0  0  0  0  0  0  0  0
    4.4067   -1.1867   -1.4509 C   0  0  0  0  0  0  0  0  0  0  0  0
    5.2904   -1.0082   -2.2833 O   0  0  0  0  0  0  0  0  0  0  0  0
    4.2049   -0.4713   -0.2840 N   0  0  0  0  0  0  0  0  0  0  0  0
    4.9460    0.6083    0.2222 C   0  0  0  0  0  0  0  0  0  0  0  0
    6.0972    1.1132   -0.3835 C   0  0  0  0  0  0  0  0  0  0  0  0
    6.7799    2.1932    0.1856 C   0  0  0  0  0  0  0  0  0  0  0  0
    6.3167    2.7751    1.3636 C   0  0  0  0  0  0  0  0  0  0  0  0
    5.1695    2.2772    1.9754 C   0  0  0  0  0  0  0  0  0  0  0  0
    4.4878    1.1982    1.4070 C   0  0  0  0  0  0  0  0  0  0  0  0
    1.2803   -3.2228   -0.8336 C   0  0  0  0  0  0  0  0  0  0  0  0
    0.0032   -2.9321   -0.0311 C   0  0  0  0  0  0  0  0  0  0  0  0
   -2.8205   -0.9030    2.7092 H   0  0  0  0  0  0  0  0  0  0  0  0
   -1.3943   -1.9483    2.7183 H   0  0  0  0  0  0  0  0  0  0  0  0
   -2.9816   -2.6131    3.1373 H   0  0  0  0  0  0  0  0  0  0  0  0
   -3.7889   -2.2951    0.8139 H   0  0  0  0  0  0  0  0  0  0  0  0
   -2.4053   -3.3124    0.8540 H   0  0  0  0  0  0  0  0  0  0  0  0
   -0.1170    1.1379   -2.2928 H   0  0  0  0  0  0  0  0  0  0  0  0
   -1.9603    2.6838   -2.2314 H   0  0  0  0  0  0  0  0  0  0  0  0
   -4.1720    3.3463   -1.4404 H   0  0  0  0  0  0  0  0  0  0  0  0
   -7.5134    3.6146    1.3473 H   0  0  0  0  0  0  0  0  0  0  0  0
   -8.2754    2.8014   -0.0686 H   0  0  0  0  0  0  0  0  0  0  0  0
   -7.7382    4.4896   -0.1808 H   0  0  0  0  0  0  0  0  0  0  0  0
   -4.4765   -0.2903    0.8152 H   0  0  0  0  0  0  0  0  0  0  0  0
    1.2373   -1.4177   -2.8288 H   0  0  0  0  0  0  0  0  0  0  0  0
    1.9156   -0.1044   -1.8508 H   0  0  0  0  0  0  0  0  0  0  0  0
    3.2870   -2.5882   -2.6628 H   0  0  0  0  0  0  0  0  0  0  0  0
    3.8607   -3.1990   -1.0944 H   0  0  0  0  0  0  0  0  0  0  0  0
    3.3745   -0.7592    0.2302 H   0  0  0  0  0  0  0  0  0  0  0  0
    6.4920    0.6864   -1.2999 H   0  0  0  0  0  0  0  0  0  0  0  0
    7.6757    2.5770   -0.2959 H   0  0  0  0  0  0  0  0  0  0  0  0
    6.8499    3.6141    1.8027 H   0  0  0  0  0  0  0  0  0  0  0  0
    4.8038    2.7276    2.8944 H   0  0  0  0  0  0  0  0  0  0  0  0
    3.5935    0.8274    1.9014 H   0  0  0  0  0  0  0  0  0  0  0  0
    1.8360   -4.0078   -0.3057 H   0  0  0  0  0  0  0  0  0  0  0  0
    1.0189   -3.6265   -1.8216 H   0  0  0  0  0  0  0  0  0  0  0  0
   -0.6603   -3.7919   -0.1699 H   0  0  0  0  0  0  0  0  0  0  0  0
    0.2607   -2.8601    1.0328 H   0  0  0  0  0  0  0  0  0  0  0  0
  1  2  1  0
  2  3  1  0
  3  4  2  0
  4  5  1  0
  5  6  2  0
  6  7  1  0
  7  8  2  0
  8  9  1  0
  9 10  2  0
 10 11  1  0
 11 12  2  0
 11 13  1  0
 13 14  1  0
 10 15  1  0
 15 16  2  0
  5 17  1  0
 17 18  1  0
 18 19  1  0
 19 20  1  0
 20 21  2  0
 20 22  1  0
 22 23  1  0
 23 24  2  0
 24 25  1  0
 25 26  2  0
 26 27  1  0
 27 28  2  0
 18 29  1  0
 29 30  1  0
 16  3  1  0
 28 23  1  0
 30  4  1  0
 16  7  1  0
  1 31  1  0
  1 32  1  0
  1 33  1  0
  2 34  1  0
  2 35  1  0
  6 36  1  0
  8 37  1  0
  9 38  1  0
 14 39  1  0
 14 40  1  0
 14 41  1  0
 15 42  1  0
 17 43  1  0
 17 44  1  0
 19 45  1  0
 19 46  1  0
 22 47  1  0
 24 48  1  0
 25 49  1  0
 26 50  1  0
 27 51  1  0
 28 52  1  0
 29 53  1  0
 29 54  1  0
 30 55  1  0
 30 56  1  0
M  END
>  <smiles>
CCc1c2c(cc3ccc(C(=O)OC)cc13)CN(CC(=O)Nc1ccccc1)CC2

$$$$
