mol_d5569f101514
     RDKit          3D

 54 58  0  0  0  0  0  0  0  0999 V2000
   -4.3449   -3.4065   -0.4272 C   0  0  0  0  0  0  0  0  0  0  0  0
   -3.5729   -2.1953   -0.1860 N   0  0  0  0  0  0  0  0  0  0  0  0
   -2.1756   -2.2967   -0.3057 C   0  0  0  0  0  0  0  0  0  0  0  0
   -1.6006   -3.3337   -0.6360 O   0  0  0  0  0  0  0  0  0  0  0  0
   -1.4815   -1.1397   -0.0311 N   0  0  0  0  0  0  0  0  0  0  0  0
   -2.0652    0.0726    0.2593 C   0  0  0  0  0  0  0  0  0  0  0  0
   -1.1339    1.0257    0.4411 C   0  0  0  0  0  0  0  0  0  0  0  0
    0.2247    0.3885    0.4409 C   0  0  0  0  0  0  0  0  0  0  0  0
    1.4287    1.0525   -0.2079 C   0  0  0  0  0  0  0  0  0  0  0  0
    2.5243   -0.0121   -0.5034 C   0  0  0  0  0  0  0  0  0  0  0  0
    3.8754    0.5535   -0.3949 N   0  0  0  0  0  0  0  0  0  0  0  0
    4.3878    1.0130    0.8898 C   0  0  0  0  0  0  0  0  0  0  0  0
    5.8152    0.5287    1.1125 C   0  0  0  0  0  0  0  0  0  0  0  0
    6.6859    0.6624   -0.1395 C   0  0  0  0  0  0  0  0  0  0  0  0
    5.9897    1.4056   -1.2731 C   0  0  0  0  0  0  0  0  0  0  0  0
    4.6217    0.8101   -1.5429 C   0  0  0  0  0  0  0  0  0  0  0  0
    4.2186    0.6132   -2.6853 O   0  0  0  0  0  0  0  0  0  0  0  0
    2.3640   -1.3208    0.3198 C   0  0  0  0  0  0  0  0  0  0  0  0
    0.9669   -1.9708    0.1805 C   0  0  0  0  0  0  0  0  0  0  0  0
   -0.0596   -0.9398   -0.2712 C   0  0  0  0  0  0  0  0  0  0  0  0
   -3.5077    0.1499    0.3308 C   0  0  0  0  0  0  0  0  0  0  0  0
   -4.2451    1.3754    0.6292 C   0  0  0  0  0  0  0  0  0  0  0  0
   -5.5886    1.4291    0.7056 C   0  0  0  0  0  0  0  0  0  0  0  0
   -6.2899    2.6935    1.0087 C   0  0  0  0  0  0  0  0  0  0  0  0
   -7.4904    2.8747    1.0854 O   0  0  0  0  0  0  0  0  0  0  0  0
   -5.4529    3.7324    1.2154 O   0  0  0  0  0  0  0  0  0  0  0  0
   -6.3355    0.1652    0.4705 C   0  0  0  0  0  0  0  0  0  0  0  0
   -7.5569    0.0774    0.5154 O   0  0  0  0  0  0  0  0  0  0  0  0
   -5.5813   -0.9471    0.1908 N   0  0  0  0  0  0  0  0  0  0  0  0
   -4.2093   -0.9897    0.1154 C   0  0  0  0  0  0  0  0  0  0  0  0
   -4.9453   -3.6347    0.4595 H   0  0  0  0  0  0  0  0  0  0  0  0
   -4.9966   -3.2511   -1.2930 H   0  0  0  0  0  0  0  0  0  0  0  0
   -3.7115   -4.2735   -0.6330 H   0  0  0  0  0  0  0  0  0  0  0  0
   -1.3127    2.0586    0.6981 H   0  0  0  0  0  0  0  0  0  0  0  0
    0.4676    0.2146    1.5010 H   0  0  0  0  0  0  0  0  0  0  0  0
    1.8003    1.8427    0.4550 H   0  0  0  0  0  0  0  0  0  0  0  0
    1.1501    1.5531   -1.1439 H   0  0  0  0  0  0  0  0  0  0  0  0
    2.3814   -0.3117   -1.5503 H   0  0  0  0  0  0  0  0  0  0  0  0
    3.7450    0.6789    1.7089 H   0  0  0  0  0  0  0  0  0  0  0  0
    4.3603    2.1095    0.8802 H   0  0  0  0  0  0  0  0  0  0  0  0
    5.7995   -0.5259    1.4155 H   0  0  0  0  0  0  0  0  0  0  0  0
    6.2629    1.0817    1.9463 H   0  0  0  0  0  0  0  0  0  0  0  0
    7.6285    1.1619    0.1118 H   0  0  0  0  0  0  0  0  0  0  0  0
    6.9539   -0.3442   -0.4860 H   0  0  0  0  0  0  0  0  0  0  0  0
    5.8674    2.4674   -1.0319 H   0  0  0  0  0  0  0  0  0  0  0  0
    6.5925    1.3370   -2.1851 H   0  0  0  0  0  0  0  0  0  0  0  0
    3.1333   -2.0462    0.0276 H   0  0  0  0  0  0  0  0  0  0  0  0
    2.5380   -1.1158    1.3830 H   0  0  0  0  0  0  0  0  0  0  0  0
    0.6789   -2.4266    1.1353 H   0  0  0  0  0  0  0  0  0  0  0  0
    1.0138   -2.7860   -0.5510 H   0  0  0  0  0  0  0  0  0  0  0  0
    0.0298   -0.8258   -1.3631 H   0  0  0  0  0  0  0  0  0  0  0  0
   -3.6519    2.2705    0.7907 H   0  0  0  0  0  0  0  0  0  0  0  0
   -6.0684    4.4751    1.3979 H   0  0  0  0  0  0  0  0  0  0  0  0
   -6.1278   -1.7806    0.0343 H   0  0  0  0  0  0  0  0  0  0  0  0
  1  2  1  0
  2  3  1  0
  3  4  2  0
  3  5  1  0
  5  6  1  0
  6  7  2  0
  7  8  1  0
  8  9  1  0
  9 10  1  0
 10 11  1  0
 11 12  1  0
 12 13  1  0
 13 14  1  0
 14 15  1  0
 15 16  1  0
 16 17  2  0
 10 18  1  0
 18 19  1  0
 19 20  1  0
  6 21  1  0
 21 22  1  0
 22 23  2  0
 23 24  1  0
 24 25  2  0
 24 26  1  0
 23 27  1  0
 27 28  2  0
 27 29  1  0
 29 30  1  0
 30  2  1  0
 20  5  1  0
 30 21  2  0
 20  8  1  0
 16 11  1  0
  1 31  1  0
  1 32  1  0
  1 33  1  0
  7 34  1  0
  8 35  1  0
  9 36  1  0
  9 37  1  0
 10 38  1  0
 12 39  1  0
 12 40  1  0
 13 41  1  0
 13 42  1  0
 14 43  1  0
 14 44  1  0
 15 45  1  0
 15 46  1  0
 18 47  1  0
 18 48  1  0
 19 49  1  0
 19 50  1  0
 20 51  1  0
 22 52  1  0
 26 53  1  0
 29 54  1  0
M  END
>  <smiles>
CN1C(=O)N2C(=CC3CC(N4CCCCC4=O)CCC32)c2cc(C(=O)O)c(=O)[nH]c21

$$$$
