mol_b0b7531ec25c
     RDKit          3D

 52 55  0  0  0  0  0  0  0  0999 V2000
    5.1897   -0.9369    3.8746 C   0  0  0  0  0  0  0  0  0  0  0  0
    4.3688   -1.2079    2.6251 C   0  0  0  0  0  0  0  0  0  0  0  0
    5.2536   -1.6260    1.4545 C   0  0  0  0  0  0  0  0  0  0  0  0
    4.4713   -1.8532    0.2584 N   0  0  0  0  0  0  0  0  0  0  0  0
    3.8601   -3.0623    0.0008 C   0  0  0  0  0  0  0  0  0  0  0  0
    3.9661   -4.0415    0.7344 O   0  0  0  0  0  0  0  0  0  0  0  0
    3.0792   -3.1107   -1.3019 C   0  0  0  0  0  0  0  0  0  0  0  0
    2.0071   -2.0491   -1.4083 C   0  0  0  0  0  0  0  0  0  0  0  0
    2.0566   -1.0888   -2.4281 C   0  0  0  0  0  0  0  0  0  0  0  0
    1.0795   -0.0923   -2.5465 C   0  0  0  0  0  0  0  0  0  0  0  0
    0.0397   -0.0884   -1.6062 C   0  0  0  0  0  0  0  0  0  0  0  0
   -0.0388   -1.0336   -0.5880 C   0  0  0  0  0  0  0  0  0  0  0  0
    0.9474   -2.0267   -0.4835 C   0  0  0  0  0  0  0  0  0  0  0  0
   -1.1364   -0.8228    0.2016 N   0  0  0  0  0  0  0  0  0  0  0  0
   -1.7373    0.2286   -0.3077 C   0  0  0  0  0  0  0  0  0  0  0  0
   -1.0760    0.7164   -1.4279 N   0  0  0  0  0  0  0  0  0  0  0  0
   -1.4794    1.8215   -2.1958 C   0  0  0  0  0  0  0  0  0  0  0  0
   -0.7864    2.2126   -3.1256 O   0  0  0  0  0  0  0  0  0  0  0  0
   -2.8564    2.3473   -1.8068 C   0  0  0  0  0  0  0  0  0  0  0  0
   -3.1529    3.7094   -2.3931 C   0  0  0  0  0  0  0  0  0  0  0  0
   -3.9826    4.5612   -1.7699 C   0  0  0  0  0  0  0  0  0  0  0  0
   -4.6179    4.2057   -0.5211 C   0  0  0  0  0  0  0  0  0  0  0  0
   -4.1727    3.1731    0.2120 C   0  0  0  0  0  0  0  0  0  0  0  0
   -2.9999    2.3444   -0.2611 C   0  0  0  0  0  0  0  0  0  0  0  0
   -2.9715    0.8857    0.2508 C   0  0  0  0  0  0  0  0  0  0  0  0
   -4.2245    0.0680   -0.0964 C   0  0  0  0  0  0  0  0  0  0  0  0
   -4.2774   -1.2426    0.6404 C   0  0  0  0  0  0  0  0  0  0  0  0
   -4.4523   -2.3379    0.1328 O   0  0  0  0  0  0  0  0  0  0  0  0
   -4.1989   -1.1048    1.9762 O   0  0  0  0  0  0  0  0  0  0  0  0
    4.5363   -0.6372    4.7000 H   0  0  0  0  0  0  0  0  0  0  0  0
    5.7396   -1.8314    4.1841 H   0  0  0  0  0  0  0  0  0  0  0  0
    5.9112   -0.1317    3.7030 H   0  0  0  0  0  0  0  0  0  0  0  0
    3.6315   -1.9910    2.8385 H   0  0  0  0  0  0  0  0  0  0  0  0
    3.8022   -0.3073    2.3593 H   0  0  0  0  0  0  0  0  0  0  0  0
    5.9772   -0.8385    1.2194 H   0  0  0  0  0  0  0  0  0  0  0  0
    5.8089   -2.5383    1.6991 H   0  0  0  0  0  0  0  0  0  0  0  0
    4.2990   -1.0735   -0.3639 H   0  0  0  0  0  0  0  0  0  0  0  0
    3.7994   -3.0200   -2.1240 H   0  0  0  0  0  0  0  0  0  0  0  0
    2.6101   -4.0974   -1.3968 H   0  0  0  0  0  0  0  0  0  0  0  0
    2.8650   -1.1067   -3.1582 H   0  0  0  0  0  0  0  0  0  0  0  0
    1.1320    0.6417   -3.3460 H   0  0  0  0  0  0  0  0  0  0  0  0
    0.8773   -2.7617    0.3137 H   0  0  0  0  0  0  0  0  0  0  0  0
   -3.5790    1.6614   -2.2699 H   0  0  0  0  0  0  0  0  0  0  0  0
   -2.7133    3.9805   -3.3504 H   0  0  0  0  0  0  0  0  0  0  0  0
   -4.2159    5.5308   -2.2020 H   0  0  0  0  0  0  0  0  0  0  0  0
   -5.4382    4.8280   -0.1733 H   0  0  0  0  0  0  0  0  0  0  0  0
   -4.6202    2.9615    1.1797 H   0  0  0  0  0  0  0  0  0  0  0  0
   -2.1105    2.8396    0.1646 H   0  0  0  0  0  0  0  0  0  0  0  0
   -2.8572    0.9244    1.3428 H   0  0  0  0  0  0  0  0  0  0  0  0
   -5.1437    0.6088    0.1533 H   0  0  0  0  0  0  0  0  0  0  0  0
   -4.2634   -0.1617   -1.1677 H   0  0  0  0  0  0  0  0  0  0  0  0
   -4.2061   -2.0289    2.3060 H   0  0  0  0  0  0  0  0  0  0  0  0
  1  2  1  0
  2  3  1  0
  3  4  1  0
  4  5  1  0
  5  6  2  0
  5  7  1  0
  7  8  1  0
  8  9  2  0
  9 10  1  0
 10 11  2  0
 11 12  1  0
 12 13  2  0
 12 14  1  0
 14 15  2  0
 15 16  1  0
 16 17  1  0
 17 18  2  0
 17 19  1  0
 19 20  1  0
 20 21  2  0
 21 22  1  0
 22 23  2  0
 23 24  1  0
 24 25  1  0
 25 26  1  0
 26 27  1  0
 27 28  2  0
 27 29  1  0
 13  8  1  0
 25 15  1  0
 16 11  1  0
 24 19  1  0
  1 30  1  0
  1 31  1  0
  1 32  1  0
  2 33  1  0
  2 34  1  0
  3 35  1  0
  3 36  1  0
  4 37  1  0
  7 38  1  0
  7 39  1  0
  9 40  1  0
 10 41  1  0
 13 42  1  0
 19 43  1  0
 20 44  1  0
 21 45  1  0
 22 46  1  0
 23 47  1  0
 24 48  1  0
 25 49  1  0
 26 50  1  0
 26 51  1  0
 29 52  1  0
M  END
>  <smiles>
CCCNC(=O)Cc1ccc2c(c1)nc1n2C(=O)C2C=CC=CC2C1CC(=O)O

$$$$
