mol_c33ad25b68e4
     RDKit          3D

 54 57  0  0  0  0  0  0  0  0999 V2000
   -6.1199   -0.4364    1.1889 C   0  0  0  0  0  0  0  0  0  0  0  0
   -4.7474    0.0631    0.8650 C   0  0  0  0  0  0  0  0  0  0  0  0
   -4.3800    1.3478    1.2785 C   0  0  0  0  0  0  0  0  0  0  0  0
   -3.1029    1.8627    1.0070 C   0  0  0  0  0  0  0  0  0  0  0  0
   -2.1188    1.1278    0.3055 C   0  0  0  0  0  0  0  0  0  0  0  0
   -2.4931   -0.1414   -0.1153 C   0  0  0  0  0  0  0  0  0  0  0  0
   -3.7847   -0.6614    0.1667 C   0  0  0  0  0  0  0  0  0  0  0  0
   -3.8539   -1.9522   -0.3907 N   0  0  0  0  0  0  0  0  0  0  0  0
   -4.9643   -2.8566   -0.3651 C   0  0  0  0  0  0  0  0  0  0  0  0
   -2.6426   -2.2451   -1.0321 C   0  0  0  0  0  0  0  0  0  0  0  0
   -2.3793   -3.2594   -1.6613 O   0  0  0  0  0  0  0  0  0  0  0  0
   -1.7978   -1.1293   -0.8398 N   0  0  0  0  0  0  0  0  0  0  0  0
   -0.5159   -1.0774   -1.4824 C   0  0  0  0  0  0  0  0  0  0  0  0
    0.5531   -0.1650   -0.8841 C   0  0  0  0  0  0  0  0  0  0  0  0
    1.8814   -0.4014   -1.6432 C   0  0  0  0  0  0  0  0  0  0  0  0
    3.0695   -0.0978   -0.8414 N   0  0  0  0  0  0  0  0  0  0  0  0
    3.5781    1.2628   -0.8093 C   0  0  0  0  0  0  0  0  0  0  0  0
    5.0905    1.3546   -0.6320 C   0  0  0  0  0  0  0  0  0  0  0  0
    5.7147    0.1414    0.0495 C   0  0  0  0  0  0  0  0  0  0  0  0
    4.7303   -0.6596    0.8967 C   0  0  0  0  0  0  0  0  0  0  0  0
    4.2927    0.0561    2.1697 C   0  0  0  0  0  0  0  0  0  0  0  0
    3.5353   -1.0620    0.0466 C   0  0  0  0  0  0  0  0  0  0  0  0
    3.0199   -2.1720    0.1667 O   0  0  0  0  0  0  0  0  0  0  0  0
    0.1051    1.2988   -1.0119 C   0  0  0  0  0  0  0  0  0  0  0  0
   -0.7737    1.7854    0.1414 C   0  0  0  0  0  0  0  0  0  0  0  0
   -0.0159    1.7396    1.3974 N   0  0  0  0  0  0  0  0  0  0  0  0
   -6.6815   -0.6430    0.2737 H   0  0  0  0  0  0  0  0  0  0  0  0
   -6.0671   -1.3332    1.8123 H   0  0  0  0  0  0  0  0  0  0  0  0
   -6.6945    0.3072    1.7527 H   0  0  0  0  0  0  0  0  0  0  0  0
   -5.0840    1.9701    1.8288 H   0  0  0  0  0  0  0  0  0  0  0  0
   -2.8732    2.8656    1.3667 H   0  0  0  0  0  0  0  0  0  0  0  0
   -5.8175   -2.4061   -0.8781 H   0  0  0  0  0  0  0  0  0  0  0  0
   -5.2175   -3.1001    0.6695 H   0  0  0  0  0  0  0  0  0  0  0  0
   -4.7130   -3.7885   -0.8804 H   0  0  0  0  0  0  0  0  0  0  0  0
   -0.1313   -2.1057   -1.5028 H   0  0  0  0  0  0  0  0  0  0  0  0
   -0.6997   -0.8151   -2.5331 H   0  0  0  0  0  0  0  0  0  0  0  0
    0.6975   -0.4401    0.1675 H   0  0  0  0  0  0  0  0  0  0  0  0
    1.9596   -1.4565   -1.9332 H   0  0  0  0  0  0  0  0  0  0  0  0
    1.9224    0.1754   -2.5748 H   0  0  0  0  0  0  0  0  0  0  0  0
    3.2988    1.7782   -1.7351 H   0  0  0  0  0  0  0  0  0  0  0  0
    3.0726    1.7795    0.0134 H   0  0  0  0  0  0  0  0  0  0  0  0
    5.3250    2.2656   -0.0680 H   0  0  0  0  0  0  0  0  0  0  0  0
    5.5666    1.4834   -1.6123 H   0  0  0  0  0  0  0  0  0  0  0  0
    6.1082   -0.5199   -0.7348 H   0  0  0  0  0  0  0  0  0  0  0  0
    6.5807    0.4518    0.6459 H   0  0  0  0  0  0  0  0  0  0  0  0
    5.2337   -1.5894    1.1935 H   0  0  0  0  0  0  0  0  0  0  0  0
    5.1571    0.2674    2.8079 H   0  0  0  0  0  0  0  0  0  0  0  0
    3.7838    1.0029    1.9725 H   0  0  0  0  0  0  0  0  0  0  0  0
    3.5976   -0.5695    2.7405 H   0  0  0  0  0  0  0  0  0  0  0  0
   -0.4218    1.4517   -1.9638 H   0  0  0  0  0  0  0  0  0  0  0  0
    0.9781    1.9589   -1.0610 H   0  0  0  0  0  0  0  0  0  0  0  0
   -0.9682    2.8462   -0.0729 H   0  0  0  0  0  0  0  0  0  0  0  0
    0.7962    2.3480    1.3346 H   0  0  0  0  0  0  0  0  0  0  0  0
   -0.5894    2.0921    2.1610 H   0  0  0  0  0  0  0  0  0  0  0  0
  1  2  1  0
  2  3  1  0
  3  4  2  0
  4  5  1  0
  5  6  2  0
  6  7  1  0
  7  8  1  0
  8  9  1  0
  8 10  1  0
 10 11  2  0
 10 12  1  0
 12 13  1  0
 13 14  1  0
 14 15  1  0
 15 16  1  0
 16 17  1  0
 17 18  1  0
 18 19  1  0
 19 20  1  0
 20 21  1  0
 20 22  1  0
 22 23  2  0
 14 24  1  0
 24 25  1  0
 25 26  1  0
  7  2  2  0
 22 16  1  0
 25  5  1  0
 12  6  1  0
  1 27  1  0
  1 28  1  0
  1 29  1  0
  3 30  1  0
  4 31  1  0
  9 32  1  0
  9 33  1  0
  9 34  1  0
 13 35  1  0
 13 36  1  0
 14 37  1  0
 15 38  1  0
 15 39  1  0
 17 40  1  0
 17 41  1  0
 18 42  1  0
 18 43  1  0
 19 44  1  0
 19 45  1  0
 20 46  1  0
 21 47  1  0
 21 48  1  0
 21 49  1  0
 24 50  1  0
 24 51  1  0
 25 52  1  0
 26 53  1  0
 26 54  1  0
M  END
>  <smiles>
Cc1ccc2c3c1n(C)c(=O)n3CC(CN1CCCC(C)C1=O)CC2N

$$$$
