mol_91af773c0b30
     RDKit          3D

 57 60  0  0  0  0  0  0  0  0999 V2000
    3.9862   -1.8490    2.2250 C   0  0  0  0  0  0  0  0  0  0  0  0
    3.6101   -0.8715    1.1459 C   0  0  0  0  0  0  0  0  0  0  0  0
    2.2635   -0.5541    0.9397 C   0  0  0  0  0  0  0  0  0  0  0  0
    1.8886    0.3449   -0.0785 C   0  0  0  0  0  0  0  0  0  0  0  0
    0.6152    0.8304   -0.5124 C   0  0  0  0  0  0  0  0  0  0  0  0
   -0.7288    0.4836    0.0482 C   0  0  0  0  0  0  0  0  0  0  0  0
   -1.3130   -0.7754   -0.6014 C   0  0  0  0  0  0  0  0  0  0  0  0
   -2.6486   -1.1882    0.0192 C   0  0  0  0  0  0  0  0  0  0  0  0
   -3.8144   -0.2915   -0.3749 C   0  0  0  0  0  0  0  0  0  0  0  0
   -3.6608    0.6426   -1.1621 O   0  0  0  0  0  0  0  0  0  0  0  0
   -5.0494   -0.5816    0.1936 N   0  0  0  0  0  0  0  0  0  0  0  0
   -6.2021    0.2517   -0.1451 C   0  0  0  0  0  0  0  0  0  0  0  0
   -6.8976    0.7585    1.1162 C   0  0  0  0  0  0  0  0  0  0  0  0
   -7.2486   -0.3932    2.0568 C   0  0  0  0  0  0  0  0  0  0  0  0
   -6.0172   -1.2462    2.3579 C   0  0  0  0  0  0  0  0  0  0  0  0
   -5.3409   -1.7154    1.0718 C   0  0  0  0  0  0  0  0  0  0  0  0
    0.8576    1.6852   -1.5630 C   0  0  0  0  0  0  0  0  0  0  0  0
    2.2087    1.7340   -1.7851 N   0  0  0  0  0  0  0  0  0  0  0  0
    2.7893    2.5172   -2.8532 C   0  0  0  0  0  0  0  0  0  0  0  0
    2.8827    0.9319   -0.8762 C   0  0  0  0  0  0  0  0  0  0  0  0
    4.2637    0.6585   -0.6744 C   0  0  0  0  0  0  0  0  0  0  0  0
    4.5872   -0.2802    0.3353 C   0  0  0  0  0  0  0  0  0  0  0  0
    5.8786   -0.6715    0.6089 O   0  0  0  0  0  0  0  0  0  0  0  0
    6.8687   -0.3213   -0.3492 C   0  0  0  0  0  0  0  0  0  0  0  0
    6.8939   -1.2530   -1.4217 O   0  0  0  0  0  0  0  0  0  0  0  0
    6.7227    1.1058   -0.8386 C   0  0  0  0  0  0  0  0  0  0  0  0
    5.3627    1.2879   -1.4870 C   0  0  0  0  0  0  0  0  0  0  0  0
    4.6629   -1.3781    2.9455 H   0  0  0  0  0  0  0  0  0  0  0  0
    4.4725   -2.7271    1.7879 H   0  0  0  0  0  0  0  0  0  0  0  0
    3.1069   -2.1969    2.7774 H   0  0  0  0  0  0  0  0  0  0  0  0
    1.4941   -1.0069    1.5586 H   0  0  0  0  0  0  0  0  0  0  0  0
   -0.6417    0.3363    1.1318 H   0  0  0  0  0  0  0  0  0  0  0  0
   -1.4047    1.3354   -0.0907 H   0  0  0  0  0  0  0  0  0  0  0  0
   -0.6053   -1.6050   -0.4753 H   0  0  0  0  0  0  0  0  0  0  0  0
   -1.4246   -0.6247   -1.6826 H   0  0  0  0  0  0  0  0  0  0  0  0
   -2.8850   -2.2028   -0.3227 H   0  0  0  0  0  0  0  0  0  0  0  0
   -2.5554   -1.2007    1.1107 H   0  0  0  0  0  0  0  0  0  0  0  0
   -5.9124    1.1034   -0.7683 H   0  0  0  0  0  0  0  0  0  0  0  0
   -6.8881   -0.3660   -0.7371 H   0  0  0  0  0  0  0  0  0  0  0  0
   -7.8053    1.3091    0.8462 H   0  0  0  0  0  0  0  0  0  0  0  0
   -6.2355    1.4597    1.6394 H   0  0  0  0  0  0  0  0  0  0  0  0
   -8.0234   -1.0186    1.5965 H   0  0  0  0  0  0  0  0  0  0  0  0
   -7.6651    0.0018    2.9899 H   0  0  0  0  0  0  0  0  0  0  0  0
   -6.3034   -2.1114    2.9659 H   0  0  0  0  0  0  0  0  0  0  0  0
   -5.3058   -0.6548    2.9479 H   0  0  0  0  0  0  0  0  0  0  0  0
   -4.4445   -2.2856    1.3208 H   0  0  0  0  0  0  0  0  0  0  0  0
   -6.0055   -2.3895    0.5180 H   0  0  0  0  0  0  0  0  0  0  0  0
    0.1658    2.2540   -2.1720 H   0  0  0  0  0  0  0  0  0  0  0  0
    3.3339    3.3545   -2.4119 H   0  0  0  0  0  0  0  0  0  0  0  0
    3.4437    1.8768   -3.4478 H   0  0  0  0  0  0  0  0  0  0  0  0
    1.9951    2.9039   -3.4982 H   0  0  0  0  0  0  0  0  0  0  0  0
    7.8358   -0.4122    0.1562 H   0  0  0  0  0  0  0  0  0  0  0  0
    5.9705   -1.3391   -1.7120 H   0  0  0  0  0  0  0  0  0  0  0  0
    7.5080    1.3589   -1.5592 H   0  0  0  0  0  0  0  0  0  0  0  0
    6.8077    1.7910    0.0145 H   0  0  0  0  0  0  0  0  0  0  0  0
    5.3638    0.8334   -2.4847 H   0  0  0  0  0  0  0  0  0  0  0  0
    5.1871    2.3613   -1.6022 H   0  0  0  0  0  0  0  0  0  0  0  0
  1  2  1  0
  2  3  1  0
  3  4  2  0
  4  5  1  0
  5  6  1  0
  6  7  1  0
  7  8  1  0
  8  9  1  0
  9 10  2  0
  9 11  1  0
 11 12  1  0
 12 13  1  0
 13 14  1  0
 14 15  1  0
 15 16  1  0
  5 17  2  0
 17 18  1  0
 18 19  1  0
 18 20  1  0
 20 21  2  0
 21 22  1  0
 22 23  1  0
 23 24  1  0
 24 25  1  0
 24 26  1  0
 26 27  1  0
 22  2  2  0
 20  4  1  0
 27 21  1  0
 16 11  1  0
  1 28  1  0
  1 29  1  0
  1 30  1  0
  3 31  1  0
  6 32  1  0
  6 33  1  0
  7 34  1  0
  7 35  1  0
  8 36  1  0
  8 37  1  0
 12 38  1  0
 12 39  1  0
 13 40  1  0
 13 41  1  0
 14 42  1  0
 14 43  1  0
 15 44  1  0
 15 45  1  0
 16 46  1  0
 16 47  1  0
 17 48  1  0
 19 49  1  0
 19 50  1  0
 19 51  1  0
 24 52  1  0
 25 53  1  0
 26 54  1  0
 26 55  1  0
 27 56  1  0
 27 57  1  0
M  END
>  <smiles>
Cc1cc2c(CCCC(=O)N3CCCCC3)cn(C)c2c2c1OC(O)CC2

$$$$
