mol_81c072567754
     RDKit          3D

 51 54  0  0  0  0  0  0  0  0999 V2000
   -2.5704    2.6552   -2.0226 C   0  0  0  0  0  0  0  0  0  0  0  0
   -2.7180    1.2576   -2.6066 C   0  0  0  0  0  0  0  0  0  0  0  0
   -3.4814    0.3295   -1.6759 C   0  0  0  0  0  0  0  0  0  0  0  0
   -4.8797    0.2152   -1.8291 C   0  0  0  0  0  0  0  0  0  0  0  0
   -5.4687    0.9668   -2.8133 O   0  0  0  0  0  0  0  0  0  0  0  0
   -5.6432   -0.6232   -1.0113 C   0  0  0  0  0  0  0  0  0  0  0  0
   -7.1304   -0.7686   -1.1602 C   0  0  0  0  0  0  0  0  0  0  0  0
   -4.9850   -1.3502   -0.0130 C   0  0  0  0  0  0  0  0  0  0  0  0
   -3.6005   -1.2505    0.1851 C   0  0  0  0  0  0  0  0  0  0  0  0
   -3.0039   -2.0004    1.2149 C   0  0  0  0  0  0  0  0  0  0  0  0
   -1.6249   -1.9108    1.4391 C   0  0  0  0  0  0  0  0  0  0  0  0
   -0.8607   -2.5487    2.3747 N   0  0  0  0  0  0  0  0  0  0  0  0
    0.3618   -2.1243    2.1552 C   0  0  0  0  0  0  0  0  0  0  0  0
    0.4457   -1.2033    1.1282 N   0  0  0  0  0  0  0  0  0  0  0  0
    1.5922   -0.5366    0.6449 C   0  0  0  0  0  0  0  0  0  0  0  0
    1.5283    0.1541   -0.3622 O   0  0  0  0  0  0  0  0  0  0  0  0
    2.7250   -0.7307    1.4110 N   0  0  0  0  0  0  0  0  0  0  0  0
    3.9871   -0.1015    1.0430 C   0  0  0  0  0  0  0  0  0  0  0  0
    4.0422    1.3467    1.5595 C   0  0  0  0  0  0  0  0  0  0  0  0
    5.4648    1.8548    1.8070 C   0  0  0  0  0  0  0  0  0  0  0  0
    6.4781    1.1779    0.8949 C   0  0  0  0  0  0  0  0  0  0  0  0
    6.5099   -0.3369    1.1054 C   0  0  0  0  0  0  0  0  0  0  0  0
    5.1704   -0.9202    1.5606 C   0  0  0  0  0  0  0  0  0  0  0  0
   -0.8553   -1.0778    0.6405 C   0  0  0  0  0  0  0  0  0  0  0  0
   -1.4282   -0.3184   -0.3956 C   0  0  0  0  0  0  0  0  0  0  0  0
   -2.8234   -0.4014   -0.6424 C   0  0  0  0  0  0  0  0  0  0  0  0
   -3.5482    3.1130   -1.8383 H   0  0  0  0  0  0  0  0  0  0  0  0
   -2.0243    2.6398   -1.0739 H   0  0  0  0  0  0  0  0  0  0  0  0
   -2.0216    3.2984   -2.7177 H   0  0  0  0  0  0  0  0  0  0  0  0
   -3.2210    1.3227   -3.5790 H   0  0  0  0  0  0  0  0  0  0  0  0
   -1.7348    0.8386   -2.8469 H   0  0  0  0  0  0  0  0  0  0  0  0
   -6.4258    0.8198   -2.8128 H   0  0  0  0  0  0  0  0  0  0  0  0
   -7.6243    0.1926   -0.9856 H   0  0  0  0  0  0  0  0  0  0  0  0
   -7.3776   -1.1307   -2.1634 H   0  0  0  0  0  0  0  0  0  0  0  0
   -7.5424   -1.4860   -0.4424 H   0  0  0  0  0  0  0  0  0  0  0  0
   -5.5674   -2.0075    0.6319 H   0  0  0  0  0  0  0  0  0  0  0  0
   -3.5901   -2.6552    1.8517 H   0  0  0  0  0  0  0  0  0  0  0  0
    1.2196   -2.4730    2.7109 H   0  0  0  0  0  0  0  0  0  0  0  0
    2.6964   -1.2004    2.3031 H   0  0  0  0  0  0  0  0  0  0  0  0
    4.0386   -0.0812   -0.0539 H   0  0  0  0  0  0  0  0  0  0  0  0
    3.5436    1.9972    0.8295 H   0  0  0  0  0  0  0  0  0  0  0  0
    3.4696    1.4526    2.4900 H   0  0  0  0  0  0  0  0  0  0  0  0
    5.7404    1.6652    2.8522 H   0  0  0  0  0  0  0  0  0  0  0  0
    5.4957    2.9416    1.6693 H   0  0  0  0  0  0  0  0  0  0  0  0
    7.4783    1.5932    1.0625 H   0  0  0  0  0  0  0  0  0  0  0  0
    6.2219    1.3946   -0.1499 H   0  0  0  0  0  0  0  0  0  0  0  0
    6.8238   -0.8145    0.1693 H   0  0  0  0  0  0  0  0  0  0  0  0
    7.2744   -0.5925    1.8491 H   0  0  0  0  0  0  0  0  0  0  0  0
    5.1422   -0.9489    2.6583 H   0  0  0  0  0  0  0  0  0  0  0  0
    5.0952   -1.9636    1.2304 H   0  0  0  0  0  0  0  0  0  0  0  0
   -0.7942    0.3300   -0.9917 H   0  0  0  0  0  0  0  0  0  0  0  0
  1  2  1  0
  2  3  1  0
  3  4  1  0
  4  5  1  0
  4  6  2  0
  6  7  1  0
  6  8  1  0
  8  9  2  0
  9 10  1  0
 10 11  2  0
 11 12  1  0
 12 13  2  0
 13 14  1  0
 14 15  1  0
 15 16  2  0
 15 17  1  0
 17 18  1  0
 18 19  1  0
 19 20  1  0
 20 21  1  0
 21 22  1  0
 22 23  1  0
 14 24  1  0
 24 25  2  0
 25 26  1  0
 26  3  2  0
 26  9  1  0
 24 11  1  0
 23 18  1  0
  1 27  1  0
  1 28  1  0
  1 29  1  0
  2 30  1  0
  2 31  1  0
  5 32  1  0
  7 33  1  0
  7 34  1  0
  7 35  1  0
  8 36  1  0
 10 37  1  0
 13 38  1  0
 17 39  1  0
 18 40  1  0
 19 41  1  0
 19 42  1  0
 20 43  1  0
 20 44  1  0
 21 45  1  0
 21 46  1  0
 22 47  1  0
 22 48  1  0
 23 49  1  0
 23 50  1  0
 25 51  1  0
M  END
>  <smiles>
CCc1c(O)c(C)cc2cc3ncn(C(=O)NC4CCCCC4)c3cc12

$$$$
