mol_695a7a2ccfab
     RDKit          3D

 39 40  0  0  0  0  0  0  0  0999 V2000
   -5.1767    2.3019   -1.2333 C   0  0  0  0  0  0  0  0  0  0  0  0
   -4.3688    1.1808   -0.5992 C   0  0  0  0  0  0  0  0  0  0  0  0
   -3.6586    0.3366   -1.6579 C   0  0  0  0  0  0  0  0  0  0  0  0
   -2.8557   -0.7785   -1.0348 C   0  0  0  0  0  0  0  0  0  0  0  0
   -3.4342   -2.0339   -0.8158 C   0  0  0  0  0  0  0  0  0  0  0  0
   -2.6947   -3.0579   -0.2244 C   0  0  0  0  0  0  0  0  0  0  0  0
   -1.3734   -2.8251    0.1543 C   0  0  0  0  0  0  0  0  0  0  0  0
   -0.6414   -3.8242    0.7351 O   0  0  0  0  0  0  0  0  0  0  0  0
   -0.7668   -1.5790   -0.0440 C   0  0  0  0  0  0  0  0  0  0  0  0
    0.6698   -1.3729    0.3882 C   0  0  0  0  0  0  0  0  0  0  0  0
    1.1200   -0.0429    0.1117 O   0  0  0  0  0  0  0  0  0  0  0  0
    2.4059    0.2647    0.4595 C   0  0  0  0  0  0  0  0  0  0  0  0
    3.3246   -0.5976    1.0593 C   0  0  0  0  0  0  0  0  0  0  0  0
    4.6155   -0.1482    1.3628 C   0  0  0  0  0  0  0  0  0  0  0  0
    4.9965    1.1664    1.0686 C   0  0  0  0  0  0  0  0  0  0  0  0
    6.3748    1.5936    1.4097 C   0  0  0  0  0  0  0  0  0  0  0  0
    7.2275    0.8995    1.9319 O   0  0  0  0  0  0  0  0  0  0  0  0
    6.6223    2.8736    1.0803 O   0  0  0  0  0  0  0  0  0  0  0  0
    4.0766    2.0307    0.4677 C   0  0  0  0  0  0  0  0  0  0  0  0
    2.7891    1.5770    0.1668 C   0  0  0  0  0  0  0  0  0  0  0  0
   -1.5261   -0.5597   -0.6411 C   0  0  0  0  0  0  0  0  0  0  0  0
   -5.6764    2.8934   -0.4597 H   0  0  0  0  0  0  0  0  0  0  0  0
   -5.9440    1.9018   -1.9036 H   0  0  0  0  0  0  0  0  0  0  0  0
   -4.5315    2.9725   -1.8098 H   0  0  0  0  0  0  0  0  0  0  0  0
   -5.0375    0.5508    0.0000 H   0  0  0  0  0  0  0  0  0  0  0  0
   -3.6365    1.6135    0.0933 H   0  0  0  0  0  0  0  0  0  0  0  0
   -2.9956    0.9674   -2.2637 H   0  0  0  0  0  0  0  0  0  0  0  0
   -4.3906   -0.0879   -2.3568 H   0  0  0  0  0  0  0  0  0  0  0  0
   -4.4662   -2.2193   -1.1049 H   0  0  0  0  0  0  0  0  0  0  0  0
   -3.1646   -4.0235   -0.0670 H   0  0  0  0  0  0  0  0  0  0  0  0
   -1.1992   -4.6172    0.8005 H   0  0  0  0  0  0  0  0  0  0  0  0
    0.7292   -1.5560    1.4683 H   0  0  0  0  0  0  0  0  0  0  0  0
    1.2956   -2.0868   -0.1618 H   0  0  0  0  0  0  0  0  0  0  0  0
    3.0734   -1.6245    1.3052 H   0  0  0  0  0  0  0  0  0  0  0  0
    5.3229   -0.8308    1.8306 H   0  0  0  0  0  0  0  0  0  0  0  0
    7.5518    3.0115    1.3590 H   0  0  0  0  0  0  0  0  0  0  0  0
    4.3473    3.0560    0.2290 H   0  0  0  0  0  0  0  0  0  0  0  0
    2.0770    2.2534   -0.3007 H   0  0  0  0  0  0  0  0  0  0  0  0
   -1.0813    0.4207   -0.8035 H   0  0  0  0  0  0  0  0  0  0  0  0
  1  2  1  0
  2  3  1  0
  3  4  1  0
  4  5  1  0
  5  6  2  0
  6  7  1  0
  7  8  1  0
  7  9  2  0
  9 10  1  0
 10 11  1  0
 11 12  1  0
 12 13  1  0
 13 14  2  0
 14 15  1  0
 15 16  1  0
 16 17  2  0
 16 18  1  0
 15 19  2  0
 19 20  1  0
  9 21  1  0
 21  4  2  0
 20 12  2  0
  1 22  1  0
  1 23  1  0
  1 24  1  0
  2 25  1  0
  2 26  1  0
  3 27  1  0
  3 28  1  0
  5 29  1  0
  6 30  1  0
  8 31  1  0
 10 32  1  0
 10 33  1  0
 13 34  1  0
 14 35  1  0
 18 36  1  0
 19 37  1  0
 20 38  1  0
 21 39  1  0
M  END
>  <smiles>
CCCc1ccc(O)c(COc2ccc(C(=O)O)cc2)c1

$$$$
