mol_cf1770c72cdd
     RDKit          3D

 61 65  0  0  0  0  0  0  0  0999 V2000
   -7.7213    0.9160    1.4206 O   0  0  0  0  0  0  0  0  0  0  0  0
   -7.2886   -0.1586    1.0414 C   0  0  0  0  0  0  0  0  0  0  0  0
   -8.0649   -1.2584    1.0632 O   0  0  0  0  0  0  0  0  0  0  0  0
   -5.9268   -0.4387    0.4776 C   0  0  0  0  0  0  0  0  0  0  0  0
   -4.9760    0.7146    0.7651 C   0  0  0  0  0  0  0  0  0  0  0  0
   -3.5743    0.3861    0.2954 C   0  0  0  0  0  0  0  0  0  0  0  0
   -2.6896    0.1882    1.1284 O   0  0  0  0  0  0  0  0  0  0  0  0
   -3.3443    0.2782   -1.0667 N   0  0  0  0  0  0  0  0  0  0  0  0
   -4.1316    0.9815   -2.0836 C   0  0  0  0  0  0  0  0  0  0  0  0
   -3.2291    1.7195   -3.0913 C   0  0  0  0  0  0  0  0  0  0  0  0
   -1.9073    2.1643   -2.4516 C   0  0  0  0  0  0  0  0  0  0  0  0
   -1.1143    0.9658   -1.8735 C   0  0  0  0  0  0  0  0  0  0  0  0
   -0.2660    1.3801   -0.6738 C   0  0  0  0  0  0  0  0  0  0  0  0
    0.2733    0.2103    0.1918 C   0  0  0  0  0  0  0  0  0  0  0  0
    1.7718    0.3565    0.4803 C   0  0  0  0  0  0  0  0  0  0  0  0
    2.2949    1.6102    0.8309 C   0  0  0  0  0  0  0  0  0  0  0  0
    3.6589    1.7855    1.0332 C   0  0  0  0  0  0  0  0  0  0  0  0
    4.5537    0.7114    0.9028 C   0  0  0  0  0  0  0  0  0  0  0  0
    6.0345    0.9736    1.1133 C   0  0  0  0  0  0  0  0  0  0  0  0
    6.4027    2.2828    0.6377 O   0  0  0  0  0  0  0  0  0  0  0  0
    6.4383    0.8794    2.5912 C   0  0  0  0  0  0  0  0  0  0  0  0
    7.8409    1.1282    2.7235 O   0  0  0  0  0  0  0  0  0  0  0  0
    4.0396   -0.5896    0.6423 C   0  0  0  0  0  0  0  0  0  0  0  0
    4.8534   -1.7452    0.5832 C   0  0  0  0  0  0  0  0  0  0  0  0
    4.3178   -3.0138    0.3682 C   0  0  0  0  0  0  0  0  0  0  0  0
    2.9485   -3.1656    0.2225 C   0  0  0  0  0  0  0  0  0  0  0  0
    2.1065   -2.0461    0.2635 C   0  0  0  0  0  0  0  0  0  0  0  0
    2.6360   -0.7563    0.4529 C   0  0  0  0  0  0  0  0  0  0  0  0
    0.6185   -2.2552    0.2206 C   0  0  0  0  0  0  0  0  0  0  0  0
   -0.0915   -1.1157   -0.3193 N   0  0  0  0  0  0  0  0  0  0  0  0
   -1.3586   -1.3691   -0.8343 C   0  0  0  0  0  0  0  0  0  0  0  0
   -1.8988   -2.4767   -0.7845 O   0  0  0  0  0  0  0  0  0  0  0  0
   -2.0430   -0.1962   -1.5454 C   0  0  0  0  0  0  0  0  0  0  0  0
   -8.9142   -0.9507    1.4436 H   0  0  0  0  0  0  0  0  0  0  0  0
   -5.5390   -1.3563    0.9352 H   0  0  0  0  0  0  0  0  0  0  0  0
   -6.0322   -0.6080   -0.5984 H   0  0  0  0  0  0  0  0  0  0  0  0
   -4.9294    0.8905    1.8481 H   0  0  0  0  0  0  0  0  0  0  0  0
   -5.3253    1.6563    0.3340 H   0  0  0  0  0  0  0  0  0  0  0  0
   -4.7473    0.2416   -2.6062 H   0  0  0  0  0  0  0  0  0  0  0  0
   -4.8023    1.7080   -1.6225 H   0  0  0  0  0  0  0  0  0  0  0  0
   -3.7652    2.5808   -3.5058 H   0  0  0  0  0  0  0  0  0  0  0  0
   -3.0097    1.0572   -3.9385 H   0  0  0  0  0  0  0  0  0  0  0  0
   -2.1340    2.8940   -1.6641 H   0  0  0  0  0  0  0  0  0  0  0  0
   -1.2905    2.6873   -3.1918 H   0  0  0  0  0  0  0  0  0  0  0  0
   -0.4188    0.6158   -2.6505 H   0  0  0  0  0  0  0  0  0  0  0  0
    0.5435    2.0108   -1.0622 H   0  0  0  0  0  0  0  0  0  0  0  0
   -0.8479    2.0358   -0.0117 H   0  0  0  0  0  0  0  0  0  0  0  0
   -0.2093    0.2756    1.1765 H   0  0  0  0  0  0  0  0  0  0  0  0
    1.6412    2.4732    0.9441 H   0  0  0  0  0  0  0  0  0  0  0  0
    4.0241    2.7781    1.2951 H   0  0  0  0  0  0  0  0  0  0  0  0
    6.6478    0.2944    0.5139 H   0  0  0  0  0  0  0  0  0  0  0  0
    6.0173    2.3631   -0.2533 H   0  0  0  0  0  0  0  0  0  0  0  0
    5.9175    1.6307    3.1948 H   0  0  0  0  0  0  0  0  0  0  0  0
    6.2244   -0.1096    3.0077 H   0  0  0  0  0  0  0  0  0  0  0  0
    8.0022    1.9371    2.1978 H   0  0  0  0  0  0  0  0  0  0  0  0
    5.9296   -1.6890    0.7248 H   0  0  0  0  0  0  0  0  0  0  0  0
    4.9699   -3.8831    0.3387 H   0  0  0  0  0  0  0  0  0  0  0  0
    2.5333   -4.1627    0.0903 H   0  0  0  0  0  0  0  0  0  0  0  0
    0.2438   -2.4397    1.2353 H   0  0  0  0  0  0  0  0  0  0  0  0
    0.3894   -3.1399   -0.3860 H   0  0  0  0  0  0  0  0  0  0  0  0
   -2.2821   -0.6672   -2.5142 H   0  0  0  0  0  0  0  0  0  0  0  0
  1  2  2  0
  2  3  1  0
  2  4  1  0
  4  5  1  0
  5  6  1  0
  6  7  2  0
  6  8  1  0
  8  9  1  0
  9 10  1  0
 10 11  1  0
 11 12  1  0
 12 13  1  0
 13 14  1  0
 14 15  1  0
 15 16  2  0
 16 17  1  0
 17 18  2  0
 18 19  1  0
 19 20  1  0
 19 21  1  0
 21 22  1  0
 18 23  1  0
 23 24  2  0
 24 25  1  0
 25 26  2  0
 26 27  1  0
 27 28  2  0
 27 29  1  0
 29 30  1  0
 30 31  1  0
 31 32  2  0
 31 33  1  0
 33  8  1  0
 33 12  1  0
 30 14  1  0
 28 15  1  0
 28 23  1  0
  3 34  1  0
  4 35  1  0
  4 36  1  0
  5 37  1  0
  5 38  1  0
  9 39  1  0
  9 40  1  0
 10 41  1  0
 10 42  1  0
 11 43  1  0
 11 44  1  0
 12 45  1  0
 13 46  1  0
 13 47  1  0
 14 48  1  0
 16 49  1  0
 17 50  1  0
 19 51  1  0
 20 52  1  0
 21 53  1  0
 21 54  1  0
 22 55  1  0
 24 56  1  0
 25 57  1  0
 26 58  1  0
 29 59  1  0
 29 60  1  0
 33 61  1  0
M  END
>  <smiles>
O=C(O)CCC(=O)N1CCCC2CC3c4ccc(C(O)CO)c5cccc(c45)CN3C(=O)C21

$$$$
