mol_14c71e0d7e41
     RDKit          3D

 36 38  0  0  0  0  0  0  0  0999 V2000
   -0.5147    4.5532    0.7330 N   0  0  0  0  0  0  0  0  0  0  0  0
   -1.4837    3.6148    0.9522 C   0  0  0  0  0  0  0  0  0  0  0  0
   -2.5735    3.9369    1.4091 O   0  0  0  0  0  0  0  0  0  0  0  0
   -1.1771    2.2072    0.5847 C   0  0  0  0  0  0  0  0  0  0  0  0
   -2.2445    1.3451    0.3178 C   0  0  0  0  0  0  0  0  0  0  0  0
   -2.0198    0.0061   -0.0413 C   0  0  0  0  0  0  0  0  0  0  0  0
   -0.6976   -0.4767   -0.1480 C   0  0  0  0  0  0  0  0  0  0  0  0
    0.3793    0.3859    0.1640 C   0  0  0  0  0  0  0  0  0  0  0  0
    1.7840   -0.0528    0.1421 C   0  0  0  0  0  0  0  0  0  0  0  0
    2.2847   -0.8360    1.1107 C   0  0  0  0  0  0  0  0  0  0  0  0
    3.6646   -1.2290    1.0864 C   0  0  0  0  0  0  0  0  0  0  0  0
    4.4244   -0.8393    0.0581 C   0  0  0  0  0  0  0  0  0  0  0  0
    3.8733   -0.0024   -1.0605 C   0  0  0  0  0  0  0  0  0  0  0  0
    2.5148    0.4431   -0.9138 O   0  0  0  0  0  0  0  0  0  0  0  0
    0.1301    1.7213    0.5212 C   0  0  0  0  0  0  0  0  0  0  0  0
   -0.4407   -1.9167   -0.5455 C   0  0  0  0  0  0  0  0  0  0  0  0
   -1.6392   -2.6007   -1.2007 C   0  0  0  0  0  0  0  0  0  0  0  0
   -2.9001   -2.3483   -0.3890 C   0  0  0  0  0  0  0  0  0  0  0  0
   -3.2169   -0.8567   -0.3644 C   0  0  0  0  0  0  0  0  0  0  0  0
   -0.7359    5.5097    0.9764 H   0  0  0  0  0  0  0  0  0  0  0  0
    0.3638    4.3652    0.2742 H   0  0  0  0  0  0  0  0  0  0  0  0
   -3.2642    1.7243    0.3812 H   0  0  0  0  0  0  0  0  0  0  0  0
    1.6705   -1.1832    1.9360 H   0  0  0  0  0  0  0  0  0  0  0  0
    4.0572   -1.8355    1.8952 H   0  0  0  0  0  0  0  0  0  0  0  0
    5.4688   -1.1282    0.0066 H   0  0  0  0  0  0  0  0  0  0  0  0
    3.9335   -0.5676   -1.9969 H   0  0  0  0  0  0  0  0  0  0  0  0
    4.4928    0.8933   -1.1763 H   0  0  0  0  0  0  0  0  0  0  0  0
    0.9723    2.3602    0.7715 H   0  0  0  0  0  0  0  0  0  0  0  0
    0.4006   -1.9715   -1.2463 H   0  0  0  0  0  0  0  0  0  0  0  0
   -0.1650   -2.4754    0.3576 H   0  0  0  0  0  0  0  0  0  0  0  0
   -1.4495   -3.6770   -1.2806 H   0  0  0  0  0  0  0  0  0  0  0  0
   -1.7749   -2.2214   -2.2215 H   0  0  0  0  0  0  0  0  0  0  0  0
   -3.7450   -2.8977   -0.8190 H   0  0  0  0  0  0  0  0  0  0  0  0
   -2.7613   -2.7198    0.6343 H   0  0  0  0  0  0  0  0  0  0  0  0
   -4.0125   -0.6792    0.3692 H   0  0  0  0  0  0  0  0  0  0  0  0
   -3.5987   -0.5515   -1.3469 H   0  0  0  0  0  0  0  0  0  0  0  0
  1  2  1  0
  2  3  2  0
  2  4  1  0
  4  5  1  0
  5  6  2  0
  6  7  1  0
  7  8  2  0
  8  9  1  0
  9 10  2  0
 10 11  1  0
 11 12  2  0
 12 13  1  0
 13 14  1  0
  8 15  1  0
  7 16  1  0
 16 17  1  0
 17 18  1  0
 18 19  1  0
 15  4  2  0
 19  6  1  0
 14  9  1  0
  1 20  1  0
  1 21  1  0
  5 22  1  0
 10 23  1  0
 11 24  1  0
 12 25  1  0
 13 26  1  0
 13 27  1  0
 15 28  1  0
 16 29  1  0
 16 30  1  0
 17 31  1  0
 17 32  1  0
 18 33  1  0
 18 34  1  0
 19 35  1  0
 19 36  1  0
M  END
>  <smiles>
NC(=O)c1cc2c(c(C3=CC=CCO3)c1)CCCC2

$$$$
