mol_60d621897321
     RDKit          3D

 58 60  0  0  0  0  0  0  0  0999 V2000
   -5.8557    1.3325   -1.8275 C   0  0  0  0  0  0  0  0  0  0  0  0
   -4.8175    1.3581   -0.7163 C   0  0  0  0  0  0  0  0  0  0  0  0
   -5.0492    0.2277    0.2897 C   0  0  0  0  0  0  0  0  0  0  0  0
   -4.0882    0.2747    1.4837 C   0  0  0  0  0  0  0  0  0  0  0  0
   -2.6439    0.0081    1.1272 C   0  0  0  0  0  0  0  0  0  0  0  0
   -1.7579    1.0836    1.0212 C   0  0  0  0  0  0  0  0  0  0  0  0
   -0.4100    0.9226    0.6196 C   0  0  0  0  0  0  0  0  0  0  0  0
    0.1217   -0.3747    0.3675 C   0  0  0  0  0  0  0  0  0  0  0  0
   -0.7669   -1.4655    0.5930 C   0  0  0  0  0  0  0  0  0  0  0  0
   -0.3130   -2.7706    0.5620 O   0  0  0  0  0  0  0  0  0  0  0  0
    0.0264   -3.1996    1.8866 C   0  0  0  0  0  0  0  0  0  0  0  0
   -2.1343   -1.2704    0.8904 C   0  0  0  0  0  0  0  0  0  0  0  0
   -3.0221   -2.4413    0.9894 C   0  0  0  0  0  0  0  0  0  0  0  0
   -3.5396   -2.8731    2.0015 O   0  0  0  0  0  0  0  0  0  0  0  0
   -3.2494   -2.9725   -0.2243 O   0  0  0  0  0  0  0  0  0  0  0  0
    1.4445   -0.5096   -0.0971 N   0  0  0  0  0  0  0  0  0  0  0  0
    2.0314   -1.8297   -0.3882 C   0  0  0  0  0  0  0  0  0  0  0  0
    3.3376   -1.7734   -1.2029 C   0  0  0  0  0  0  0  0  0  0  0  0
    4.3302   -0.8504   -0.6228 N   0  0  0  0  0  0  0  0  0  0  0  0
    5.5750   -0.8920   -1.4201 C   0  0  0  0  0  0  0  0  0  0  0  0
    6.6935   -0.1076   -0.7532 C   0  0  0  0  0  0  0  0  0  0  0  0
    6.9452    1.0767   -0.9197 O   0  0  0  0  0  0  0  0  0  0  0  0
    7.4207   -0.8439    0.1126 O   0  0  0  0  0  0  0  0  0  0  0  0
    3.7180    0.4924   -0.6498 C   0  0  0  0  0  0  0  0  0  0  0  0
    2.3827    0.6044    0.1460 C   0  0  0  0  0  0  0  0  0  0  0  0
    1.7221    1.9131   -0.2721 C   0  0  0  0  0  0  0  0  0  0  0  0
    0.4704    2.1657    0.5553 C   0  0  0  0  0  0  0  0  0  0  0  0
   -0.2206    3.4215    0.0005 C   0  0  0  0  0  0  0  0  0  0  0  0
   -5.8180    0.3866   -2.3774 H   0  0  0  0  0  0  0  0  0  0  0  0
   -6.8658    1.4561   -1.4242 H   0  0  0  0  0  0  0  0  0  0  0  0
   -5.6716    2.1455   -2.5368 H   0  0  0  0  0  0  0  0  0  0  0  0
   -4.8619    2.3271   -0.2057 H   0  0  0  0  0  0  0  0  0  0  0  0
   -3.8221    1.2702   -1.1653 H   0  0  0  0  0  0  0  0  0  0  0  0
   -4.9794   -0.7377   -0.2239 H   0  0  0  0  0  0  0  0  0  0  0  0
   -6.0735    0.3031    0.6763 H   0  0  0  0  0  0  0  0  0  0  0  0
   -4.1739    1.2519    1.9771 H   0  0  0  0  0  0  0  0  0  0  0  0
   -4.4129   -0.4473    2.2421 H   0  0  0  0  0  0  0  0  0  0  0  0
   -2.1386    2.0780    1.2443 H   0  0  0  0  0  0  0  0  0  0  0  0
   -0.8717   -3.4166    2.4720 H   0  0  0  0  0  0  0  0  0  0  0  0
    0.6007   -4.1266    1.7972 H   0  0  0  0  0  0  0  0  0  0  0  0
    0.6480   -2.4649    2.4112 H   0  0  0  0  0  0  0  0  0  0  0  0
   -3.8340   -3.7374   -0.0508 H   0  0  0  0  0  0  0  0  0  0  0  0
    1.3427   -2.4327   -0.9893 H   0  0  0  0  0  0  0  0  0  0  0  0
    2.2453   -2.3449    0.5544 H   0  0  0  0  0  0  0  0  0  0  0  0
    3.1043   -1.4875   -2.2381 H   0  0  0  0  0  0  0  0  0  0  0  0
    3.7523   -2.7887   -1.2380 H   0  0  0  0  0  0  0  0  0  0  0  0
    5.4351   -0.5037   -2.4366 H   0  0  0  0  0  0  0  0  0  0  0  0
    5.9282   -1.9256   -1.5274 H   0  0  0  0  0  0  0  0  0  0  0  0
    8.0483   -0.2009    0.5015 H   0  0  0  0  0  0  0  0  0  0  0  0
    3.5486    0.7954   -1.6933 H   0  0  0  0  0  0  0  0  0  0  0  0
    4.4101    1.2263   -0.2198 H   0  0  0  0  0  0  0  0  0  0  0  0
    2.6265    0.6208    1.2173 H   0  0  0  0  0  0  0  0  0  0  0  0
    2.4224    2.7490   -0.1462 H   0  0  0  0  0  0  0  0  0  0  0  0
    1.4614    1.8723   -1.3396 H   0  0  0  0  0  0  0  0  0  0  0  0
    0.7808    2.3815    1.5872 H   0  0  0  0  0  0  0  0  0  0  0  0
   -0.6869    3.2243   -0.9713 H   0  0  0  0  0  0  0  0  0  0  0  0
   -0.9946    3.7943    0.6784 H   0  0  0  0  0  0  0  0  0  0  0  0
    0.4991    4.2379   -0.1279 H   0  0  0  0  0  0  0  0  0  0  0  0
  1  2  1  0
  2  3  1  0
  3  4  1  0
  4  5  1  0
  5  6  2  0
  6  7  1  0
  7  8  2  0
  8  9  1  0
  9 10  1  0
 10 11  1  0
  9 12  2  0
 12 13  1  0
 13 14  2  0
 13 15  1  0
  8 16  1  0
 16 17  1  0
 17 18  1  0
 18 19  1  0
 19 20  1  0
 20 21  1  0
 21 22  2  0
 21 23  1  0
 19 24  1  0
 24 25  1  0
 25 26  1  0
 26 27  1  0
 27 28  1  0
 12  5  1  0
 25 16  1  0
 27  7  1  0
  1 29  1  0
  1 30  1  0
  1 31  1  0
  2 32  1  0
  2 33  1  0
  3 34  1  0
  3 35  1  0
  4 36  1  0
  4 37  1  0
  6 38  1  0
 11 39  1  0
 11 40  1  0
 11 41  1  0
 15 42  1  0
 17 43  1  0
 17 44  1  0
 18 45  1  0
 18 46  1  0
 20 47  1  0
 20 48  1  0
 23 49  1  0
 24 50  1  0
 24 51  1  0
 25 52  1  0
 26 53  1  0
 26 54  1  0
 27 55  1  0
 28 56  1  0
 28 57  1  0
 28 58  1  0
M  END
>  <smiles>
CCCCc1cc2c(c(OC)c1C(=O)O)N1CCN(CC(=O)O)CC1CC2C

$$$$
