mol_f4ae28e9dc8f
     RDKit          3D

 45 49  0  0  0  0  0  0  0  0999 V2000
   -5.5059    0.8769    1.3498 C   0  0  0  0  0  0  0  0  0  0  0  0
   -4.0673    0.4102    1.1457 C   0  0  0  0  0  0  0  0  0  0  0  0
   -3.1236    1.4696    1.7162 C   0  0  0  0  0  0  0  0  0  0  0  0
   -3.2614    2.6725    1.5209 O   0  0  0  0  0  0  0  0  0  0  0  0
   -2.0331    0.9486    2.3618 N   0  0  0  0  0  0  0  0  0  0  0  0
   -1.1198    0.3759    1.6381 C   0  0  0  0  0  0  0  0  0  0  0  0
    0.1165   -0.0851    2.3661 C   0  0  0  0  0  0  0  0  0  0  0  0
    1.3108    0.4664    1.6153 C   0  0  0  0  0  0  0  0  0  0  0  0
    1.3501   -0.1029    0.2601 N   0  0  0  0  0  0  0  0  0  0  0  0
    2.6134   -0.5678   -0.1657 C   0  0  0  0  0  0  0  0  0  0  0  0
    2.7515   -1.8471   -0.7287 C   0  0  0  0  0  0  0  0  0  0  0  0
    3.9948   -2.3242   -1.1500 C   0  0  0  0  0  0  0  0  0  0  0  0
    5.1272   -1.5250   -1.0134 C   0  0  0  0  0  0  0  0  0  0  0  0
    5.0169   -0.2481   -0.4537 C   0  0  0  0  0  0  0  0  0  0  0  0
    6.2461    0.5709   -0.3292 C   0  0  0  0  0  0  0  0  0  0  0  0
    7.3595    0.2449   -0.6968 O   0  0  0  0  0  0  0  0  0  0  0  0
    6.0251    1.7609    0.2566 O   0  0  0  0  0  0  0  0  0  0  0  0
    3.7650    0.2237   -0.0329 C   0  0  0  0  0  0  0  0  0  0  0  0
    0.1279   -0.0974   -0.4656 C   0  0  0  0  0  0  0  0  0  0  0  0
    0.1404   -0.3112   -1.8678 C   0  0  0  0  0  0  0  0  0  0  0  0
   -1.0292   -0.3538   -2.6282 C   0  0  0  0  0  0  0  0  0  0  0  0
   -2.2311   -0.1764   -1.9762 C   0  0  0  0  0  0  0  0  0  0  0  0
   -2.2896    0.0683   -0.6031 C   0  0  0  0  0  0  0  0  0  0  0  0
   -1.1241    0.1295    0.1673 C   0  0  0  0  0  0  0  0  0  0  0  0
   -3.6491    0.1921   -0.2346 N   0  0  0  0  0  0  0  0  0  0  0  0
   -4.4909   -0.0104   -1.3319 C   0  0  0  0  0  0  0  0  0  0  0  0
   -5.7110   -0.0375   -1.3497 O   0  0  0  0  0  0  0  0  0  0  0  0
   -3.6076   -0.2149   -2.5580 C   0  0  0  0  0  0  0  0  0  0  0  0
   -5.7380    1.7557    0.7380 H   0  0  0  0  0  0  0  0  0  0  0  0
   -6.2172    0.0846    1.0965 H   0  0  0  0  0  0  0  0  0  0  0  0
   -5.6800    1.1486    2.3971 H   0  0  0  0  0  0  0  0  0  0  0  0
   -3.9294   -0.5340    1.6871 H   0  0  0  0  0  0  0  0  0  0  0  0
    0.1106    0.2920    3.3946 H   0  0  0  0  0  0  0  0  0  0  0  0
    0.1227   -1.1805    2.4022 H   0  0  0  0  0  0  0  0  0  0  0  0
    1.2651    1.5616    1.5493 H   0  0  0  0  0  0  0  0  0  0  0  0
    2.2107    0.2124    2.1902 H   0  0  0  0  0  0  0  0  0  0  0  0
    1.8814   -2.4931   -0.8258 H   0  0  0  0  0  0  0  0  0  0  0  0
    4.0785   -3.3194   -1.5794 H   0  0  0  0  0  0  0  0  0  0  0  0
    6.0945   -1.8999   -1.3429 H   0  0  0  0  0  0  0  0  0  0  0  0
    6.9093    2.1844    0.2683 H   0  0  0  0  0  0  0  0  0  0  0  0
    3.6807    1.2260    0.3798 H   0  0  0  0  0  0  0  0  0  0  0  0
    1.0858   -0.4346   -2.3930 H   0  0  0  0  0  0  0  0  0  0  0  0
   -0.9852   -0.5266   -3.6995 H   0  0  0  0  0  0  0  0  0  0  0  0
   -3.8242   -1.1879   -3.0064 H   0  0  0  0  0  0  0  0  0  0  0  0
   -3.7670    0.6023   -3.2660 H   0  0  0  0  0  0  0  0  0  0  0  0
  1  2  1  0
  2  3  1  0
  3  4  2  0
  3  5  1  0
  5  6  2  0
  6  7  1  0
  7  8  1  0
  8  9  1  0
  9 10  1  0
 10 11  2  0
 11 12  1  0
 12 13  2  0
 13 14  1  0
 14 15  1  0
 15 16  2  0
 15 17  1  0
 14 18  2  0
  9 19  1  0
 19 20  1  0
 20 21  2  0
 21 22  1  0
 22 23  2  0
 23 24  1  0
 23 25  1  0
 25 26  1  0
 26 27  2  0
 26 28  1  0
 25  2  1  0
 24  6  1  0
 18 10  1  0
 24 19  2  0
 28 22  1  0
  1 29  1  0
  1 30  1  0
  1 31  1  0
  2 32  1  0
  7 33  1  0
  7 34  1  0
  8 35  1  0
  8 36  1  0
 11 37  1  0
 12 38  1  0
 13 39  1  0
 17 40  1  0
 18 41  1  0
 20 42  1  0
 21 43  1  0
 28 44  1  0
 28 45  1  0
M  END
>  <smiles>
CC1C(=O)N=C2CCN(c3cccc(C(=O)O)c3)c3ccc4c(c32)N1C(=O)C4

$$$$
