mol_7022b2b4b75a
     RDKit          3D

 42 45  0  0  0  0  0  0  0  0999 V2000
    3.3508    1.0421    1.7278 C   0  0  0  0  0  0  0  0  0  0  0  0
    4.3907    1.1405    0.6684 C   0  0  0  0  0  0  0  0  0  0  0  0
    5.6389    1.3490    0.9082 N   0  0  0  0  0  0  0  0  0  0  0  0
    6.2767    1.4030   -0.3436 N   0  0  0  0  0  0  0  0  0  0  0  0
    5.4644    1.2332   -1.2883 N   0  0  0  0  0  0  0  0  0  0  0  0
    4.1071    0.9909   -0.7805 C   0  0  0  0  0  0  0  0  0  0  0  0
    3.6734   -0.4148   -1.1913 C   0  0  0  0  0  0  0  0  0  0  0  0
    2.2026   -0.6807   -0.9882 C   0  0  0  0  0  0  0  0  0  0  0  0
    1.2344    0.0189   -1.7256 C   0  0  0  0  0  0  0  0  0  0  0  0
   -0.1045   -0.1439   -1.5957 N   0  0  0  0  0  0  0  0  0  0  0  0
   -0.4751   -1.0710   -0.7010 C   0  0  0  0  0  0  0  0  0  0  0  0
    0.4012   -1.8256    0.0629 C   0  0  0  0  0  0  0  0  0  0  0  0
    1.7629   -1.6430   -0.0721 C   0  0  0  0  0  0  0  0  0  0  0  0
   -0.3665   -2.7507    0.9491 C   0  0  0  0  0  0  0  0  0  0  0  0
   -1.8170   -2.4225    0.5861 C   0  0  0  0  0  0  0  0  0  0  0  0
   -2.8013   -2.9612    1.0681 O   0  0  0  0  0  0  0  0  0  0  0  0
   -1.7831   -1.4269   -0.3821 N   0  0  0  0  0  0  0  0  0  0  0  0
   -2.9400   -0.8133   -0.9758 C   0  0  0  0  0  0  0  0  0  0  0  0
   -3.1867    0.5152   -0.3380 C   0  0  0  0  0  0  0  0  0  0  0  0
   -2.4261    1.6094   -0.6809 N   0  0  0  0  0  0  0  0  0  0  0  0
   -2.8422    2.7023    0.0267 C   0  0  0  0  0  0  0  0  0  0  0  0
   -3.8795    2.3081    0.8397 C   0  0  0  0  0  0  0  0  0  0  0  0
   -4.1024    0.9195    0.6218 C   0  0  0  0  0  0  0  0  0  0  0  0
   -5.1177    0.0713    1.3006 C   0  0  0  0  0  0  0  0  0  0  0  0
    3.6792    1.5744    2.6246 H   0  0  0  0  0  0  0  0  0  0  0  0
    3.1876   -0.0075    1.9823 H   0  0  0  0  0  0  0  0  0  0  0  0
    2.4154    1.4834    1.3748 H   0  0  0  0  0  0  0  0  0  0  0  0
    3.4309    1.7805   -1.1207 H   0  0  0  0  0  0  0  0  0  0  0  0
    3.8954   -0.5780   -2.2545 H   0  0  0  0  0  0  0  0  0  0  0  0
    4.2631   -1.1660   -0.6487 H   0  0  0  0  0  0  0  0  0  0  0  0
    1.5240    0.7568   -2.4716 H   0  0  0  0  0  0  0  0  0  0  0  0
    2.4614   -2.2295    0.5178 H   0  0  0  0  0  0  0  0  0  0  0  0
   -0.1944   -2.5296    2.0054 H   0  0  0  0  0  0  0  0  0  0  0  0
   -0.1574   -3.7972    0.7133 H   0  0  0  0  0  0  0  0  0  0  0  0
   -2.7869   -0.7115   -2.0565 H   0  0  0  0  0  0  0  0  0  0  0  0
   -3.8078   -1.4660   -0.8292 H   0  0  0  0  0  0  0  0  0  0  0  0
   -1.6464    1.5787   -1.3297 H   0  0  0  0  0  0  0  0  0  0  0  0
   -2.3623    3.6626   -0.1027 H   0  0  0  0  0  0  0  0  0  0  0  0
   -4.4176    2.9496    1.5261 H   0  0  0  0  0  0  0  0  0  0  0  0
   -5.7867   -0.3884    0.5663 H   0  0  0  0  0  0  0  0  0  0  0  0
   -5.7282    0.6614    1.9915 H   0  0  0  0  0  0  0  0  0  0  0  0
   -4.6300   -0.7236    1.8736 H   0  0  0  0  0  0  0  0  0  0  0  0
  1  2  1  0
  2  3  2  0
  3  4  1  0
  4  5  2  0
  5  6  1  0
  6  7  1  0
  7  8  1  0
  8  9  1  0
  9 10  2  0
 10 11  1  0
 11 12  2  0
 12 13  1  0
 12 14  1  0
 14 15  1  0
 15 16  2  0
 15 17  1  0
 17 18  1  0
 18 19  1  0
 19 20  1  0
 20 21  1  0
 21 22  2  0
 22 23  1  0
 23 24  1  0
  6  2  1  0
 13  8  2  0
 23 19  2  0
 17 11  1  0
  1 25  1  0
  1 26  1  0
  1 27  1  0
  6 28  1  0
  7 29  1  0
  7 30  1  0
  9 31  1  0
 13 32  1  0
 14 33  1  0
 14 34  1  0
 18 35  1  0
 18 36  1  0
 20 37  1  0
 21 38  1  0
 22 39  1  0
 24 40  1  0
 24 41  1  0
 24 42  1  0
M  END
>  <smiles>
CC1=NN=NC1Cc1cnc2c(c1)CC(=O)N2Cc1[nH]ccc1C

$$$$
