mol_7d46a984b807
     RDKit          3D

 44 46  0  0  0  0  0  0  0  0999 V2000
    1.9303    2.2314    0.3277 C   0  0  0  0  0  0  0  0  0  0  0  0
    2.4653    0.8227    0.3089 C   0  0  0  0  0  0  0  0  0  0  0  0
    3.8074    0.5337    0.6310 C   0  0  0  0  0  0  0  0  0  0  0  0
    4.7978    1.5545    1.0470 C   0  0  0  0  0  0  0  0  0  0  0  0
    5.9787    1.5601    0.7532 O   0  0  0  0  0  0  0  0  0  0  0  0
    4.2818    2.4610    1.8936 O   0  0  0  0  0  0  0  0  0  0  0  0
    4.2861   -0.7816    0.5559 C   0  0  0  0  0  0  0  0  0  0  0  0
    3.4292   -1.8232    0.2098 C   0  0  0  0  0  0  0  0  0  0  0  0
    2.0797   -1.5679   -0.0683 C   0  0  0  0  0  0  0  0  0  0  0  0
    1.6073   -0.2519   -0.0157 C   0  0  0  0  0  0  0  0  0  0  0  0
    0.2953    0.0693   -0.2792 O   0  0  0  0  0  0  0  0  0  0  0  0
   -0.6140   -0.9153   -0.5862 C   0  0  0  0  0  0  0  0  0  0  0  0
   -0.2612   -2.2649   -0.6677 C   0  0  0  0  0  0  0  0  0  0  0  0
   -1.2455   -3.2152   -0.9804 C   0  0  0  0  0  0  0  0  0  0  0  0
   -2.5605   -2.8201   -1.2154 C   0  0  0  0  0  0  0  0  0  0  0  0
   -2.8988   -1.4710   -1.1357 C   0  0  0  0  0  0  0  0  0  0  0  0
   -4.1906   -1.0837   -1.3594 O   0  0  0  0  0  0  0  0  0  0  0  0
   -1.9402   -0.4980   -0.8228 C   0  0  0  0  0  0  0  0  0  0  0  0
   -2.3157    0.9676   -0.7287 C   0  0  0  0  0  0  0  0  0  0  0  0
   -2.4481    1.4871    0.7176 C   0  0  0  0  0  0  0  0  0  0  0  0
   -2.5589    3.0138    0.7107 C   0  0  0  0  0  0  0  0  0  0  0  0
   -3.6574    0.8854    1.4371 C   0  0  0  0  0  0  0  0  0  0  0  0
    1.1523   -2.6990   -0.4072 C   0  0  0  0  0  0  0  0  0  0  0  0
    1.6782   -3.3771   -1.5483 O   0  0  0  0  0  0  0  0  0  0  0  0
    1.6268    2.5059    1.3425 H   0  0  0  0  0  0  0  0  0  0  0  0
    2.6776    2.9426   -0.0390 H   0  0  0  0  0  0  0  0  0  0  0  0
    1.0660    2.3503   -0.3340 H   0  0  0  0  0  0  0  0  0  0  0  0
    5.0461    3.0272    2.1288 H   0  0  0  0  0  0  0  0  0  0  0  0
    5.3299   -0.9994    0.7765 H   0  0  0  0  0  0  0  0  0  0  0  0
    3.8134   -2.8406    0.1558 H   0  0  0  0  0  0  0  0  0  0  0  0
   -0.9844   -4.2707   -1.0397 H   0  0  0  0  0  0  0  0  0  0  0  0
   -3.3043   -3.5741   -1.4551 H   0  0  0  0  0  0  0  0  0  0  0  0
   -4.7300   -1.8686   -1.5481 H   0  0  0  0  0  0  0  0  0  0  0  0
   -3.2423    1.1657   -1.2821 H   0  0  0  0  0  0  0  0  0  0  0  0
   -1.5493    1.5463   -1.2624 H   0  0  0  0  0  0  0  0  0  0  0  0
   -1.5502    1.2234    1.2900 H   0  0  0  0  0  0  0  0  0  0  0  0
   -1.6772    3.4652    0.2434 H   0  0  0  0  0  0  0  0  0  0  0  0
   -3.4444    3.3460    0.1583 H   0  0  0  0  0  0  0  0  0  0  0  0
   -2.6299    3.4038    1.7316 H   0  0  0  0  0  0  0  0  0  0  0  0
   -3.7575    1.3055    2.4438 H   0  0  0  0  0  0  0  0  0  0  0  0
   -4.5859    1.0895    0.8933 H   0  0  0  0  0  0  0  0  0  0  0  0
   -3.5563   -0.1988    1.5462 H   0  0  0  0  0  0  0  0  0  0  0  0
    1.1492   -3.4022    0.4350 H   0  0  0  0  0  0  0  0  0  0  0  0
    1.2042   -3.0349   -2.3252 H   0  0  0  0  0  0  0  0  0  0  0  0
  1  2  1  0
  2  3  2  0
  3  4  1  0
  4  5  2  0
  4  6  1  0
  3  7  1  0
  7  8  2  0
  8  9  1  0
  9 10  2  0
 10 11  1  0
 11 12  1  0
 12 13  2  0
 13 14  1  0
 14 15  2  0
 15 16  1  0
 16 17  1  0
 16 18  2  0
 18 19  1  0
 19 20  1  0
 20 21  1  0
 20 22  1  0
 13 23  1  0
 23 24  1  0
 10  2  1  0
 18 12  1  0
 23  9  1  0
  1 25  1  0
  1 26  1  0
  1 27  1  0
  6 28  1  0
  7 29  1  0
  8 30  1  0
 14 31  1  0
 15 32  1  0
 17 33  1  0
 19 34  1  0
 19 35  1  0
 20 36  1  0
 21 37  1  0
 21 38  1  0
 21 39  1  0
 22 40  1  0
 22 41  1  0
 22 42  1  0
 23 43  1  0
 24 44  1  0
M  END
>  <smiles>
Cc1c(C(=O)O)ccc2c1Oc1c(ccc(O)c1CC(C)C)C2O

$$$$
