mol_b16586f16b0a
     RDKit          3D

 46 49  0  0  0  0  0  0  0  0999 V2000
    5.3962   -0.9371    3.2552 O   0  0  0  0  0  0  0  0  0  0  0  0
    5.2206    0.0880    2.6229 C   0  0  0  0  0  0  0  0  0  0  0  0
    5.6524    1.2746    3.0862 O   0  0  0  0  0  0  0  0  0  0  0  0
    4.5391    0.1943    1.3104 C   0  0  0  0  0  0  0  0  0  0  0  0
    4.3797    1.4190    0.6527 C   0  0  0  0  0  0  0  0  0  0  0  0
    3.7286    1.4714   -0.5831 C   0  0  0  0  0  0  0  0  0  0  0  0
    3.2329    0.3024   -1.1789 C   0  0  0  0  0  0  0  0  0  0  0  0
    2.5075    0.3649   -2.5042 C   0  0  0  0  0  0  0  0  0  0  0  0
    1.0298    0.6438   -2.3583 C   0  0  0  0  0  0  0  0  0  0  0  0
    0.5393    1.9579   -2.4214 C   0  0  0  0  0  0  0  0  0  0  0  0
   -0.8253    2.2199   -2.2729 C   0  0  0  0  0  0  0  0  0  0  0  0
   -1.7157    1.1728   -2.0427 C   0  0  0  0  0  0  0  0  0  0  0  0
   -1.2308   -0.1357   -1.9483 C   0  0  0  0  0  0  0  0  0  0  0  0
   -2.1588   -1.2599   -1.7264 C   0  0  0  0  0  0  0  0  0  0  0  0
   -2.2027   -2.1299   -2.5965 O   0  0  0  0  0  0  0  0  0  0  0  0
   -2.9757   -1.2758   -0.6100 N   0  0  0  0  0  0  0  0  0  0  0  0
   -4.1035   -2.2149   -0.5410 C   0  0  0  0  0  0  0  0  0  0  0  0
   -4.9609   -1.7966    0.6559 C   0  0  0  0  0  0  0  0  0  0  0  0
   -4.0206   -0.8954    1.3866 C   0  0  0  0  0  0  0  0  0  0  0  0
   -4.1841   -0.3556    2.6476 C   0  0  0  0  0  0  0  0  0  0  0  0
   -5.2781   -0.6327    3.3678 F   0  0  0  0  0  0  0  0  0  0  0  0
   -3.2017    0.4779    3.1693 C   0  0  0  0  0  0  0  0  0  0  0  0
   -2.0554    0.7588    2.4148 C   0  0  0  0  0  0  0  0  0  0  0  0
   -1.8936    0.2166    1.1325 C   0  0  0  0  0  0  0  0  0  0  0  0
   -2.8938   -0.5946    0.6180 C   0  0  0  0  0  0  0  0  0  0  0  0
    0.1294   -0.4060   -2.1283 C   0  0  0  0  0  0  0  0  0  0  0  0
    3.3924   -0.9206   -0.5118 C   0  0  0  0  0  0  0  0  0  0  0  0
    4.0426   -0.9750    0.7237 C   0  0  0  0  0  0  0  0  0  0  0  0
    6.0755    1.0497    3.9414 H   0  0  0  0  0  0  0  0  0  0  0  0
    4.7563    2.3388    1.0933 H   0  0  0  0  0  0  0  0  0  0  0  0
    3.6089    2.4331   -1.0775 H   0  0  0  0  0  0  0  0  0  0  0  0
    2.9711    1.1307   -3.1404 H   0  0  0  0  0  0  0  0  0  0  0  0
    2.6513   -0.5757   -3.0526 H   0  0  0  0  0  0  0  0  0  0  0  0
    1.2203    2.7887   -2.5950 H   0  0  0  0  0  0  0  0  0  0  0  0
   -1.1927    3.2411   -2.3387 H   0  0  0  0  0  0  0  0  0  0  0  0
   -2.7781    1.3757   -1.9364 H   0  0  0  0  0  0  0  0  0  0  0  0
   -3.6900   -3.2217   -0.4017 H   0  0  0  0  0  0  0  0  0  0  0  0
   -4.6673   -2.2093   -1.4802 H   0  0  0  0  0  0  0  0  0  0  0  0
   -5.8424   -1.2350    0.3299 H   0  0  0  0  0  0  0  0  0  0  0  0
   -5.2693   -2.6607    1.2510 H   0  0  0  0  0  0  0  0  0  0  0  0
   -3.3259    0.8981    4.1626 H   0  0  0  0  0  0  0  0  0  0  0  0
   -1.2782    1.3961    2.8314 H   0  0  0  0  0  0  0  0  0  0  0  0
   -0.9762    0.4269    0.5965 H   0  0  0  0  0  0  0  0  0  0  0  0
    0.4795   -1.4351   -2.0817 H   0  0  0  0  0  0  0  0  0  0  0  0
    3.0096   -1.8408   -0.9489 H   0  0  0  0  0  0  0  0  0  0  0  0
    4.1582   -1.9331    1.2271 H   0  0  0  0  0  0  0  0  0  0  0  0
  1  2  2  0
  2  3  1  0
  2  4  1  0
  4  5  1  0
  5  6  2  0
  6  7  1  0
  7  8  1  0
  8  9  1  0
  9 10  2  0
 10 11  1  0
 11 12  2  0
 12 13  1  0
 13 14  1  0
 14 15  2  0
 14 16  1  0
 16 17  1  0
 17 18  1  0
 18 19  1  0
 19 20  2  0
 20 21  1  0
 20 22  1  0
 22 23  2  0
 23 24  1  0
 24 25  2  0
 13 26  2  0
  7 27  2  0
 27 28  1  0
 28  4  2  0
 26  9  1  0
 25 16  1  0
 25 19  1  0
  3 29  1  0
  5 30  1  0
  6 31  1  0
  8 32  1  0
  8 33  1  0
 10 34  1  0
 11 35  1  0
 12 36  1  0
 17 37  1  0
 17 38  1  0
 18 39  1  0
 18 40  1  0
 22 41  1  0
 23 42  1  0
 24 43  1  0
 26 44  1  0
 27 45  1  0
 28 46  1  0
M  END
>  <smiles>
O=C(O)c1ccc(Cc2cccc(C(=O)N3CCc4c(F)cccc43)c2)cc1

$$$$
