mol_e86624a19a7c
     RDKit          3D

 46 48  0  0  0  0  0  0  0  0999 V2000
   -5.8745    1.1690   -0.5763 C   0  0  0  0  0  0  0  0  0  0  0  0
   -4.5677    0.6971    0.0495 C   0  0  0  0  0  0  0  0  0  0  0  0
   -3.4041    1.5503   -0.4140 C   0  0  0  0  0  0  0  0  0  0  0  0
   -2.1344    1.0904    0.2936 C   0  0  0  0  0  0  0  0  0  0  0  0
   -1.0611    1.7410   -0.3795 O   0  0  0  0  0  0  0  0  0  0  0  0
   -2.0316   -0.4222    0.3607 C   0  0  0  0  0  0  0  0  0  0  0  0
   -0.8739   -1.1004    0.8215 C   0  0  0  0  0  0  0  0  0  0  0  0
    0.3783   -0.3749    1.2843 C   0  0  0  0  0  0  0  0  0  0  0  0
    1.1646    0.1755    0.1660 N   0  0  0  0  0  0  0  0  0  0  0  0
    1.6981   -0.8790   -0.7146 C   0  0  0  0  0  0  0  0  0  0  0  0
    2.9095   -0.4078   -1.5154 C   0  0  0  0  0  0  0  0  0  0  0  0
    4.0769   -0.0624   -0.5795 C   0  0  0  0  0  0  0  0  0  0  0  0
    5.0517    0.9073   -1.2348 C   0  0  0  0  0  0  0  0  0  0  0  0
    6.2639    1.0066   -0.6148 N   0  0  0  0  0  0  0  0  0  0  0  0
    4.8172    1.5676   -2.2387 O   0  0  0  0  0  0  0  0  0  0  0  0
    3.5809    0.4900    0.7679 C   0  0  0  0  0  0  0  0  0  0  0  0
    2.1944    1.1176    0.6354 C   0  0  0  0  0  0  0  0  0  0  0  0
   -0.8639   -2.5105    0.8553 C   0  0  0  0  0  0  0  0  0  0  0  0
   -1.9748   -3.2483    0.4584 C   0  0  0  0  0  0  0  0  0  0  0  0
   -3.1235   -2.5872    0.0457 C   0  0  0  0  0  0  0  0  0  0  0  0
   -3.1612   -1.1919    0.0236 C   0  0  0  0  0  0  0  0  0  0  0  0
   -4.3686   -0.6615   -0.3535 O   0  0  0  0  0  0  0  0  0  0  0  0
   -6.0998    2.2025   -0.2960 H   0  0  0  0  0  0  0  0  0  0  0  0
   -5.8344    1.1012   -1.6692 H   0  0  0  0  0  0  0  0  0  0  0  0
   -6.7041    0.5310   -0.2527 H   0  0  0  0  0  0  0  0  0  0  0  0
   -4.6747    0.7327    1.1421 H   0  0  0  0  0  0  0  0  0  0  0  0
   -3.2730    1.4536   -1.5011 H   0  0  0  0  0  0  0  0  0  0  0  0
   -3.5764    2.6151   -0.2157 H   0  0  0  0  0  0  0  0  0  0  0  0
   -2.1497    1.4639    1.3250 H   0  0  0  0  0  0  0  0  0  0  0  0
   -0.3195    1.1084   -0.4760 H   0  0  0  0  0  0  0  0  0  0  0  0
    0.9985   -1.0340    1.9066 H   0  0  0  0  0  0  0  0  0  0  0  0
    0.0489    0.4307    1.9539 H   0  0  0  0  0  0  0  0  0  0  0  0
    1.9965   -1.7635   -0.1361 H   0  0  0  0  0  0  0  0  0  0  0  0
    0.9147   -1.1942   -1.4133 H   0  0  0  0  0  0  0  0  0  0  0  0
    3.2242   -1.1937   -2.2130 H   0  0  0  0  0  0  0  0  0  0  0  0
    2.6180    0.4489   -2.1362 H   0  0  0  0  0  0  0  0  0  0  0  0
    4.6414   -0.9832   -0.3766 H   0  0  0  0  0  0  0  0  0  0  0  0
    6.5165    0.4765    0.2064 H   0  0  0  0  0  0  0  0  0  0  0  0
    6.9434    1.6392   -1.0176 H   0  0  0  0  0  0  0  0  0  0  0  0
    4.2733    1.2317    1.1822 H   0  0  0  0  0  0  0  0  0  0  0  0
    3.5345   -0.3285    1.4982 H   0  0  0  0  0  0  0  0  0  0  0  0
    1.9076    1.5853    1.5852 H   0  0  0  0  0  0  0  0  0  0  0  0
    2.2476    1.9437   -0.0856 H   0  0  0  0  0  0  0  0  0  0  0  0
    0.0232   -3.0440    1.1914 H   0  0  0  0  0  0  0  0  0  0  0  0
   -1.9500   -4.3342    0.4825 H   0  0  0  0  0  0  0  0  0  0  0  0
   -4.0029   -3.1554   -0.2460 H   0  0  0  0  0  0  0  0  0  0  0  0
  1  2  1  0
  2  3  1  0
  3  4  1  0
  4  5  1  0
  4  6  1  0
  6  7  1  0
  7  8  1  0
  8  9  1  0
  9 10  1  0
 10 11  1  0
 11 12  1  0
 12 13  1  0
 13 14  1  0
 13 15  2  0
 12 16  1  0
 16 17  1  0
  7 18  2  0
 18 19  1  0
 19 20  2  0
 20 21  1  0
 21 22  1  0
 22  2  1  0
 21  6  2  0
 17  9  1  0
  1 23  1  0
  1 24  1  0
  1 25  1  0
  2 26  1  0
  3 27  1  0
  3 28  1  0
  4 29  1  0
  5 30  1  0
  8 31  1  0
  8 32  1  0
 10 33  1  0
 10 34  1  0
 11 35  1  0
 11 36  1  0
 12 37  1  0
 14 38  1  0
 14 39  1  0
 16 40  1  0
 16 41  1  0
 17 42  1  0
 17 43  1  0
 18 44  1  0
 19 45  1  0
 20 46  1  0
M  END
>  <smiles>
CC1CC(O)c2c(CN3CCC(C(N)=O)CC3)cccc2O1

$$$$
