mol_f9d9dfad979e
     RDKit          3D

 55 58  0  0  0  0  0  0  0  0999 V2000
    3.5175    2.7732   -1.2047 C   0  0  0  0  0  0  0  0  0  0  0  0
    4.3690    1.7240   -1.6703 O   0  0  0  0  0  0  0  0  0  0  0  0
    4.4103    0.6825   -0.7800 C   0  0  0  0  0  0  0  0  0  0  0  0
    3.2489   -0.0585   -0.5233 C   0  0  0  0  0  0  0  0  0  0  0  0
    3.2330   -1.1745    0.3504 C   0  0  0  0  0  0  0  0  0  0  0  0
    2.0774   -1.9435    0.6838 C   0  0  0  0  0  0  0  0  0  0  0  0
    0.7474   -1.6329    0.3029 N   0  0  0  0  0  0  0  0  0  0  0  0
    0.1890   -0.3822    0.1955 C   0  0  0  0  0  0  0  0  0  0  0  0
    0.6852    0.6328    0.6783 O   0  0  0  0  0  0  0  0  0  0  0  0
   -1.0255   -0.3483   -0.4711 N   0  0  0  0  0  0  0  0  0  0  0  0
   -1.6180   -1.4135   -1.2744 C   0  0  0  0  0  0  0  0  0  0  0  0
   -3.0484   -1.6872   -0.8148 C   0  0  0  0  0  0  0  0  0  0  0  0
   -3.8962   -0.4809   -0.7380 N   0  0  0  0  0  0  0  0  0  0  0  0
   -5.2507   -0.7051   -0.9613 C   0  0  0  0  0  0  0  0  0  0  0  0
   -5.6620   -1.7912   -1.3846 O   0  0  0  0  0  0  0  0  0  0  0  0
   -6.2653    0.3968   -0.7387 C   0  0  0  0  0  0  0  0  0  0  0  0
   -6.1396    1.0704    0.6137 C   0  0  0  0  0  0  0  0  0  0  0  0
   -5.1986    2.2627    0.5638 C   0  0  0  0  0  0  0  0  0  0  0  0
   -3.9717    2.0496   -0.3160 C   0  0  0  0  0  0  0  0  0  0  0  0
   -3.2665    0.7061   -0.0767 C   0  0  0  0  0  0  0  0  0  0  0  0
   -1.7848    0.8954   -0.5201 C   0  0  0  0  0  0  0  0  0  0  0  0
    2.2156   -3.1292    1.4242 C   0  0  0  0  0  0  0  0  0  0  0  0
    3.4547   -3.5241    1.9152 C   0  0  0  0  0  0  0  0  0  0  0  0
    4.5778   -2.7474    1.6565 C   0  0  0  0  0  0  0  0  0  0  0  0
    4.4868   -1.5875    0.8749 C   0  0  0  0  0  0  0  0  0  0  0  0
    5.6531   -0.8558    0.5954 C   0  0  0  0  0  0  0  0  0  0  0  0
    5.6176    0.2858   -0.2132 C   0  0  0  0  0  0  0  0  0  0  0  0
    6.8947    0.9907   -0.4415 C   0  0  0  0  0  0  0  0  0  0  0  0
    7.9876    0.4577   -0.5179 O   0  0  0  0  0  0  0  0  0  0  0  0
    6.7664    2.3284   -0.4552 O   0  0  0  0  0  0  0  0  0  0  0  0
    2.4666    2.5340   -1.3960 H   0  0  0  0  0  0  0  0  0  0  0  0
    3.7638    3.6768   -1.7705 H   0  0  0  0  0  0  0  0  0  0  0  0
    3.6763    2.9871   -0.1414 H   0  0  0  0  0  0  0  0  0  0  0  0
    2.3427    0.2303   -1.0459 H   0  0  0  0  0  0  0  0  0  0  0  0
    0.0743   -2.3737    0.4172 H   0  0  0  0  0  0  0  0  0  0  0  0
   -1.6196   -1.0662   -2.3151 H   0  0  0  0  0  0  0  0  0  0  0  0
   -1.0282   -2.3324   -1.2501 H   0  0  0  0  0  0  0  0  0  0  0  0
   -3.4871   -2.4384   -1.4798 H   0  0  0  0  0  0  0  0  0  0  0  0
   -3.0368   -2.1166    0.1951 H   0  0  0  0  0  0  0  0  0  0  0  0
   -6.2303    1.1029   -1.5745 H   0  0  0  0  0  0  0  0  0  0  0  0
   -7.2537   -0.0799   -0.7819 H   0  0  0  0  0  0  0  0  0  0  0  0
   -5.7968    0.3537    1.3701 H   0  0  0  0  0  0  0  0  0  0  0  0
   -7.1237    1.4232    0.9450 H   0  0  0  0  0  0  0  0  0  0  0  0
   -4.8853    2.5087    1.5858 H   0  0  0  0  0  0  0  0  0  0  0  0
   -5.7411    3.1406    0.1910 H   0  0  0  0  0  0  0  0  0  0  0  0
   -4.2344    2.1517   -1.3762 H   0  0  0  0  0  0  0  0  0  0  0  0
   -3.2870    2.8803   -0.0999 H   0  0  0  0  0  0  0  0  0  0  0  0
   -3.2661    0.4747    0.9969 H   0  0  0  0  0  0  0  0  0  0  0  0
   -1.7438    1.2482   -1.5590 H   0  0  0  0  0  0  0  0  0  0  0  0
   -1.3145    1.6655    0.1008 H   0  0  0  0  0  0  0  0  0  0  0  0
    1.3494   -3.7410    1.6638 H   0  0  0  0  0  0  0  0  0  0  0  0
    3.5445   -4.4301    2.5090 H   0  0  0  0  0  0  0  0  0  0  0  0
    5.5378   -3.0702    2.0562 H   0  0  0  0  0  0  0  0  0  0  0  0
    6.6097   -1.1768    1.0069 H   0  0  0  0  0  0  0  0  0  0  0  0
    7.6786    2.6531   -0.5972 H   0  0  0  0  0  0  0  0  0  0  0  0
  1  2  1  0
  2  3  1  0
  3  4  2  0
  4  5  1  0
  5  6  2  0
  6  7  1  0
  7  8  1  0
  8  9  2  0
  8 10  1  0
 10 11  1  0
 11 12  1  0
 12 13  1  0
 13 14  1  0
 14 15  2  0
 14 16  1  0
 16 17  1  0
 17 18  1  0
 18 19  1  0
 19 20  1  0
 20 21  1  0
  6 22  1  0
 22 23  2  0
 23 24  1  0
 24 25  2  0
 25 26  1  0
 26 27  2  0
 27 28  1  0
 28 29  2  0
 28 30  1  0
 27  3  1  0
 25  5  1  0
 21 10  1  0
 20 13  1  0
  1 31  1  0
  1 32  1  0
  1 33  1  0
  4 34  1  0
  7 35  1  0
 11 36  1  0
 11 37  1  0
 12 38  1  0
 12 39  1  0
 16 40  1  0
 16 41  1  0
 17 42  1  0
 17 43  1  0
 18 44  1  0
 18 45  1  0
 19 46  1  0
 19 47  1  0
 20 48  1  0
 21 49  1  0
 21 50  1  0
 22 51  1  0
 23 52  1  0
 24 53  1  0
 26 54  1  0
 30 55  1  0
M  END
>  <smiles>
COc1cc2c(NC(=O)N3CCN4C(=O)CCCCC4C3)cccc2cc1C(=O)O

$$$$
