mol_51c1b3e13dd8
     RDKit          3D

 52 55  0  0  0  0  0  0  0  0999 V2000
   -5.7625   -1.4616   -1.9493 C   0  0  0  0  0  0  0  0  0  0  0  0
   -5.4524   -0.6149   -0.7215 C   0  0  0  0  0  0  0  0  0  0  0  0
   -3.9492   -0.5635   -0.3518 C   0  0  0  0  0  0  0  0  0  0  0  0
   -3.0456   -0.1047   -1.5207 C   0  0  0  0  0  0  0  0  0  0  0  0
   -3.4769    1.2323   -2.0946 C   0  0  0  0  0  0  0  0  0  0  0  0
   -3.8993    2.2049   -1.4943 O   0  0  0  0  0  0  0  0  0  0  0  0
   -3.3240    1.2856   -3.4366 O   0  0  0  0  0  0  0  0  0  0  0  0
   -1.5960   -0.0641   -1.0867 C   0  0  0  0  0  0  0  0  0  0  0  0
   -0.5628   -0.2722   -2.0366 C   0  0  0  0  0  0  0  0  0  0  0  0
    0.7875   -0.2184   -1.6690 C   0  0  0  0  0  0  0  0  0  0  0  0
    1.0799    0.0557   -0.3495 C   0  0  0  0  0  0  0  0  0  0  0  0
    0.0663    0.2677    0.5862 C   0  0  0  0  0  0  0  0  0  0  0  0
    0.6685    0.5216    1.8161 N   0  0  0  0  0  0  0  0  0  0  0  0
    2.0590    0.4693    1.6784 C   0  0  0  0  0  0  0  0  0  0  0  0
    2.8683    0.6397    2.5738 O   0  0  0  0  0  0  0  0  0  0  0  0
    2.3139    0.1822    0.3156 N   0  0  0  0  0  0  0  0  0  0  0  0
    3.6272    0.0165   -0.2863 C   0  0  0  0  0  0  0  0  0  0  0  0
    4.5099    1.2734   -0.1329 C   0  0  0  0  0  0  0  0  0  0  0  0
    5.6999    1.0644    0.7985 C   0  0  0  0  0  0  0  0  0  0  0  0
    6.5707   -0.1161    0.3706 C   0  0  0  0  0  0  0  0  0  0  0  0
    5.7784   -1.2965   -0.1926 C   0  0  0  0  0  0  0  0  0  0  0  0
    4.3130   -1.2627    0.2222 C   0  0  0  0  0  0  0  0  0  0  0  0
   -1.2760    0.2106    0.2535 C   0  0  0  0  0  0  0  0  0  0  0  0
   -2.3313    0.4486    1.2709 C   0  0  0  0  0  0  0  0  0  0  0  0
   -2.0131    0.8650    2.3816 O   0  0  0  0  0  0  0  0  0  0  0  0
   -3.6495    0.1778    0.8951 N   0  0  0  0  0  0  0  0  0  0  0  0
   -4.7017    0.4321    1.8696 C   0  0  0  0  0  0  0  0  0  0  0  0
   -5.3369   -2.4652   -1.8526 H   0  0  0  0  0  0  0  0  0  0  0  0
   -5.3759   -1.0042   -2.8644 H   0  0  0  0  0  0  0  0  0  0  0  0
   -6.8462   -1.5640   -2.0684 H   0  0  0  0  0  0  0  0  0  0  0  0
   -5.8490    0.3955   -0.8732 H   0  0  0  0  0  0  0  0  0  0  0  0
   -6.0159   -1.0443    0.1156 H   0  0  0  0  0  0  0  0  0  0  0  0
   -3.6569   -1.5974   -0.1113 H   0  0  0  0  0  0  0  0  0  0  0  0
   -3.1387   -0.8564   -2.3159 H   0  0  0  0  0  0  0  0  0  0  0  0
   -3.5981    2.1999   -3.6670 H   0  0  0  0  0  0  0  0  0  0  0  0
   -0.8145   -0.4734   -3.0780 H   0  0  0  0  0  0  0  0  0  0  0  0
    1.5598   -0.3818   -2.4110 H   0  0  0  0  0  0  0  0  0  0  0  0
    0.1653    0.7261    2.6710 H   0  0  0  0  0  0  0  0  0  0  0  0
    3.4779   -0.1098   -1.3651 H   0  0  0  0  0  0  0  0  0  0  0  0
    3.9218    2.1364    0.2011 H   0  0  0  0  0  0  0  0  0  0  0  0
    4.9017    1.5433   -1.1230 H   0  0  0  0  0  0  0  0  0  0  0  0
    5.3418    0.8954    1.8203 H   0  0  0  0  0  0  0  0  0  0  0  0
    6.3106    1.9740    0.8350 H   0  0  0  0  0  0  0  0  0  0  0  0
    7.2955    0.2133   -0.3841 H   0  0  0  0  0  0  0  0  0  0  0  0
    7.1619   -0.4462    1.2335 H   0  0  0  0  0  0  0  0  0  0  0  0
    6.2406   -2.2370    0.1285 H   0  0  0  0  0  0  0  0  0  0  0  0
    5.8402   -1.2812   -1.2883 H   0  0  0  0  0  0  0  0  0  0  0  0
    3.7917   -2.1407   -0.1787 H   0  0  0  0  0  0  0  0  0  0  0  0
    4.2450   -1.3411    1.3142 H   0  0  0  0  0  0  0  0  0  0  0  0
   -5.0987   -0.5258    2.2176 H   0  0  0  0  0  0  0  0  0  0  0  0
   -5.4931    1.0243    1.4031 H   0  0  0  0  0  0  0  0  0  0  0  0
   -4.3323    0.9876    2.7358 H   0  0  0  0  0  0  0  0  0  0  0  0
  1  2  1  0
  2  3  1  0
  3  4  1  0
  4  5  1  0
  5  6  2  0
  5  7  1  0
  4  8  1  0
  8  9  1  0
  9 10  2  0
 10 11  1  0
 11 12  2  0
 12 13  1  0
 13 14  1  0
 14 15  2  0
 14 16  1  0
 16 17  1  0
 17 18  1  0
 18 19  1  0
 19 20  1  0
 20 21  1  0
 21 22  1  0
 12 23  1  0
 23 24  1  0
 24 25  2  0
 24 26  1  0
 26 27  1  0
 26  3  1  0
 23  8  2  0
 16 11  1  0
 22 17  1  0
  1 28  1  0
  1 29  1  0
  1 30  1  0
  2 31  1  0
  2 32  1  0
  3 33  1  0
  4 34  1  0
  7 35  1  0
  9 36  1  0
 10 37  1  0
 13 38  1  0
 17 39  1  0
 18 40  1  0
 18 41  1  0
 19 42  1  0
 19 43  1  0
 20 44  1  0
 20 45  1  0
 21 46  1  0
 21 47  1  0
 22 48  1  0
 22 49  1  0
 27 50  1  0
 27 51  1  0
 27 52  1  0
M  END
>  <smiles>
CCC1C(C(=O)O)c2ccc3c([nH]c(=O)n3C3CCCCC3)c2C(=O)N1C

$$$$
