mol_35df6d73d942
     RDKit          3D

 49 52  0  0  0  0  0  0  0  0999 V2000
   -3.0316   -3.9511    0.0528 C   0  0  0  0  0  0  0  0  0  0  0  0
   -1.9959   -2.8183   -0.0175 C   0  0  0  0  0  0  0  0  0  0  0  0
   -0.9480   -3.0338    1.1028 C   0  0  0  0  0  0  0  0  0  0  0  0
    0.2224   -2.0453    1.0322 C   0  0  0  0  0  0  0  0  0  0  0  0
   -0.2208   -0.6368    0.8367 C   0  0  0  0  0  0  0  0  0  0  0  0
    0.5113    0.5309    0.9256 C   0  0  0  0  0  0  0  0  0  0  0  0
    1.9404    0.7752    1.2833 C   0  0  0  0  0  0  0  0  0  0  0  0
    2.8524    0.4814    0.0941 C   0  0  0  0  0  0  0  0  0  0  0  0
    4.3127    0.7636    0.3986 C   0  0  0  0  0  0  0  0  0  0  0  0
    4.6591    1.2591    1.4720 O   0  0  0  0  0  0  0  0  0  0  0  0
    5.2337    0.4439   -0.5965 N   0  0  0  0  0  0  0  0  0  0  0  0
    4.9008   -0.1316   -1.8925 C   0  0  0  0  0  0  0  0  0  0  0  0
    6.6491    0.6507   -0.3399 C   0  0  0  0  0  0  0  0  0  0  0  0
   -0.3286    1.5551    0.5541 N   0  0  0  0  0  0  0  0  0  0  0  0
   -1.5842    1.0922    0.1951 C   0  0  0  0  0  0  0  0  0  0  0  0
   -1.5222   -0.2683    0.4091 C   0  0  0  0  0  0  0  0  0  0  0  0
   -2.5560   -1.3962    0.0775 C   0  0  0  0  0  0  0  0  0  0  0  0
   -3.8964   -1.2546    0.0496 N   0  0  0  0  0  0  0  0  0  0  0  0
   -4.3944   -0.0654    0.3596 C   0  0  0  0  0  0  0  0  0  0  0  0
   -5.2948    0.1789    1.1578 O   0  0  0  0  0  0  0  0  0  0  0  0
   -3.9979    1.2536   -0.4006 C   0  0  0  0  0  0  0  0  0  0  0  0
   -5.0234    1.9685   -1.0454 C   0  0  0  0  0  0  0  0  0  0  0  0
   -4.7835    3.2218   -1.6049 C   0  0  0  0  0  0  0  0  0  0  0  0
   -3.5141    3.7834   -1.5160 C   0  0  0  0  0  0  0  0  0  0  0  0
   -2.4787    3.0812   -0.8899 C   0  0  0  0  0  0  0  0  0  0  0  0
   -2.6938    1.7933   -0.3476 C   0  0  0  0  0  0  0  0  0  0  0  0
   -3.5806   -3.9388    1.0010 H   0  0  0  0  0  0  0  0  0  0  0  0
   -2.5402   -4.9266   -0.0346 H   0  0  0  0  0  0  0  0  0  0  0  0
   -3.7551   -3.8797   -0.7668 H   0  0  0  0  0  0  0  0  0  0  0  0
   -1.4909   -2.9043   -0.9897 H   0  0  0  0  0  0  0  0  0  0  0  0
   -0.5462   -4.0535    1.0534 H   0  0  0  0  0  0  0  0  0  0  0  0
   -1.4388   -2.9383    2.0815 H   0  0  0  0  0  0  0  0  0  0  0  0
    0.8735   -2.3248    0.1945 H   0  0  0  0  0  0  0  0  0  0  0  0
    0.8206   -2.1289    1.9469 H   0  0  0  0  0  0  0  0  0  0  0  0
    2.2180    0.1431    2.1359 H   0  0  0  0  0  0  0  0  0  0  0  0
    2.0704    1.8136    1.6134 H   0  0  0  0  0  0  0  0  0  0  0  0
    2.5546    1.1015   -0.7601 H   0  0  0  0  0  0  0  0  0  0  0  0
    2.7531   -0.5729   -0.1895 H   0  0  0  0  0  0  0  0  0  0  0  0
    5.3753    0.4680   -2.6754 H   0  0  0  0  0  0  0  0  0  0  0  0
    5.2963   -1.1510   -1.9293 H   0  0  0  0  0  0  0  0  0  0  0  0
    3.8291   -0.1633   -2.0878 H   0  0  0  0  0  0  0  0  0  0  0  0
    6.8389    1.0724    0.6501 H   0  0  0  0  0  0  0  0  0  0  0  0
    7.1635   -0.3121   -0.4155 H   0  0  0  0  0  0  0  0  0  0  0  0
    7.0471    1.3349   -1.0952 H   0  0  0  0  0  0  0  0  0  0  0  0
   -0.0721    2.5289    0.5376 H   0  0  0  0  0  0  0  0  0  0  0  0
   -6.0219    1.5385   -1.0625 H   0  0  0  0  0  0  0  0  0  0  0  0
   -5.5931    3.7602   -2.0864 H   0  0  0  0  0  0  0  0  0  0  0  0
   -3.3239    4.7637   -1.9412 H   0  0  0  0  0  0  0  0  0  0  0  0
   -1.4952    3.5380   -0.8720 H   0  0  0  0  0  0  0  0  0  0  0  0
  1  2  1  0
  2  3  1  0
  3  4  1  0
  4  5  1  0
  5  6  2  0
  6  7  1  0
  7  8  1  0
  8  9  1  0
  9 10  2  0
  9 11  1  0
 11 12  1  0
 11 13  1  0
  6 14  1  0
 14 15  1  0
 15 16  2  0
 16 17  1  0
 17 18  2  0
 18 19  1  0
 19 20  2  0
 19 21  1  0
 21 22  2  0
 22 23  1  0
 23 24  2  0
 24 25  1  0
 25 26  2  0
 17  2  1  0
 26 21  1  0
 16  5  1  0
 26 15  1  0
  1 27  1  0
  1 28  1  0
  1 29  1  0
  2 30  1  0
  3 31  1  0
  3 32  1  0
  4 33  1  0
  4 34  1  0
  7 35  1  0
  7 36  1  0
  8 37  1  0
  8 38  1  0
 12 39  1  0
 12 40  1  0
 12 41  1  0
 13 42  1  0
 13 43  1  0
 13 44  1  0
 14 45  1  0
 22 46  1  0
 23 47  1  0
 24 48  1  0
 25 49  1  0
M  END
>  <smiles>
CC1CCc2c(CCC(=O)N(C)C)[nH]c3c2c1nc(=O)c1ccccc13

$$$$
