mol_0ab2c03f7313
     RDKit          3D

 46 49  0  0  0  0  0  0  0  0999 V2000
   -4.5707   -1.7528   -1.3007 O   0  0  0  0  0  0  0  0  0  0  0  0
   -3.9812   -0.6993   -1.1391 C   0  0  0  0  0  0  0  0  0  0  0  0
   -2.9424   -0.3778   -1.9278 O   0  0  0  0  0  0  0  0  0  0  0  0
   -4.3619    0.3635   -0.1700 C   0  0  0  0  0  0  0  0  0  0  0  0
   -5.6910    0.3051    0.2811 C   0  0  0  0  0  0  0  0  0  0  0  0
   -6.1647    1.2470    1.1831 C   0  0  0  0  0  0  0  0  0  0  0  0
   -7.4365    1.1835    1.5977 F   0  0  0  0  0  0  0  0  0  0  0  0
   -5.3416    2.2552    1.6592 C   0  0  0  0  0  0  0  0  0  0  0  0
   -4.0164    2.3198    1.2299 C   0  0  0  0  0  0  0  0  0  0  0  0
   -3.5013    1.3771    0.3146 C   0  0  0  0  0  0  0  0  0  0  0  0
   -2.0413    1.5013   -0.0763 C   0  0  0  0  0  0  0  0  0  0  0  0
   -1.1715    0.3275    0.3661 C   0  0  0  0  0  0  0  0  0  0  0  0
   -1.5454   -0.4711    1.2257 O   0  0  0  0  0  0  0  0  0  0  0  0
    0.0737    0.2329   -0.2184 N   0  0  0  0  0  0  0  0  0  0  0  0
    0.5185    0.9830   -1.4054 C   0  0  0  0  0  0  0  0  0  0  0  0
    1.9036    0.4770   -1.6468 C   0  0  0  0  0  0  0  0  0  0  0  0
    2.8659    0.8950   -2.5447 C   0  0  0  0  0  0  0  0  0  0  0  0
    4.1369    0.3132   -2.4648 C   0  0  0  0  0  0  0  0  0  0  0  0
    4.4428   -0.6314   -1.4656 C   0  0  0  0  0  0  0  0  0  0  0  0
    3.4686   -1.0357   -0.5460 C   0  0  0  0  0  0  0  0  0  0  0  0
    2.1940   -0.5226   -0.7207 C   0  0  0  0  0  0  0  0  0  0  0  0
    0.9887   -0.8583    0.1022 C   0  0  0  0  0  0  0  0  0  0  0  0
    1.4564   -1.0429    1.5429 C   0  0  0  0  0  0  0  0  0  0  0  0
    2.5245   -2.1595    1.5737 C   0  0  0  0  0  0  0  0  0  0  0  0
    3.7609   -1.8986    0.6640 C   0  0  0  0  0  0  0  0  0  0  0  0
    4.9095   -1.3327    1.4851 C   0  0  0  0  0  0  0  0  0  0  0  0
    6.0771   -1.6872    1.4141 O   0  0  0  0  0  0  0  0  0  0  0  0
    4.5624   -0.3215    2.3049 O   0  0  0  0  0  0  0  0  0  0  0  0
   -2.8544   -1.1703   -2.5001 H   0  0  0  0  0  0  0  0  0  0  0  0
   -6.3667   -0.4727   -0.0661 H   0  0  0  0  0  0  0  0  0  0  0  0
   -5.7324    2.9786    2.3680 H   0  0  0  0  0  0  0  0  0  0  0  0
   -3.3801    3.1085    1.6282 H   0  0  0  0  0  0  0  0  0  0  0  0
   -1.6037    2.3953    0.3872 H   0  0  0  0  0  0  0  0  0  0  0  0
   -1.9816    1.6712   -1.1548 H   0  0  0  0  0  0  0  0  0  0  0  0
   -0.1423    0.7507   -2.2459 H   0  0  0  0  0  0  0  0  0  0  0  0
    0.5022    2.0531   -1.1799 H   0  0  0  0  0  0  0  0  0  0  0  0
    2.6580    1.6652   -3.2802 H   0  0  0  0  0  0  0  0  0  0  0  0
    4.9151    0.6244   -3.1588 H   0  0  0  0  0  0  0  0  0  0  0  0
    5.4595   -1.0157   -1.3974 H   0  0  0  0  0  0  0  0  0  0  0  0
    0.5331   -1.7841   -0.2732 H   0  0  0  0  0  0  0  0  0  0  0  0
    0.6214   -1.3297    2.1903 H   0  0  0  0  0  0  0  0  0  0  0  0
    1.8668   -0.1103    1.9493 H   0  0  0  0  0  0  0  0  0  0  0  0
    2.0441   -3.0876    1.2337 H   0  0  0  0  0  0  0  0  0  0  0  0
    2.8326   -2.3439    2.6101 H   0  0  0  0  0  0  0  0  0  0  0  0
    4.1024   -2.8797    0.3061 H   0  0  0  0  0  0  0  0  0  0  0  0
    5.4085   -0.0428    2.7131 H   0  0  0  0  0  0  0  0  0  0  0  0
  1  2  2  0
  2  3  1  0
  2  4  1  0
  4  5  1  0
  5  6  2  0
  6  7  1  0
  6  8  1  0
  8  9  2  0
  9 10  1  0
 10 11  1  0
 11 12  1  0
 12 13  2  0
 12 14  1  0
 14 15  1  0
 15 16  1  0
 16 17  1  0
 17 18  2  0
 18 19  1  0
 19 20  2  0
 20 21  1  0
 21 22  1  0
 22 23  1  0
 23 24  1  0
 24 25  1  0
 25 26  1  0
 26 27  2  0
 26 28  1  0
 10  4  2  0
 22 14  1  0
 21 16  2  0
 25 20  1  0
  3 29  1  0
  5 30  1  0
  8 31  1  0
  9 32  1  0
 11 33  1  0
 11 34  1  0
 15 35  1  0
 15 36  1  0
 17 37  1  0
 18 38  1  0
 19 39  1  0
 22 40  1  0
 23 41  1  0
 23 42  1  0
 24 43  1  0
 24 44  1  0
 25 45  1  0
 28 46  1  0
M  END
>  <smiles>
O=C(O)c1cc(F)ccc1CC(=O)N1Cc2cccc3c2C1CCC3C(=O)O

$$$$
