mol_001a55a6db64
     RDKit          3D

 53 57  0  0  0  0  0  0  0  0999 V2000
   -3.9274    3.6287   -0.6423 C   0  0  0  0  0  0  0  0  0  0  0  0
   -3.5873    2.2238   -0.5110 N   0  0  0  0  0  0  0  0  0  0  0  0
   -4.5983    1.2941   -0.5523 C   0  0  0  0  0  0  0  0  0  0  0  0
   -5.7928    1.5720   -0.6392 O   0  0  0  0  0  0  0  0  0  0  0  0
   -4.1852   -0.1235   -0.5303 C   0  0  0  0  0  0  0  0  0  0  0  0
   -2.8907   -0.4249   -0.3446 C   0  0  0  0  0  0  0  0  0  0  0  0
   -1.9336    0.5685   -0.1393 N   0  0  0  0  0  0  0  0  0  0  0  0
   -2.2401    1.9164   -0.3642 C   0  0  0  0  0  0  0  0  0  0  0  0
   -1.3882    2.8041   -0.4306 O   0  0  0  0  0  0  0  0  0  0  0  0
   -0.5062    0.1718    0.0817 C   0  0  0  0  0  0  0  0  0  0  0  0
    0.3359    1.1775    0.9102 C   0  0  0  0  0  0  0  0  0  0  0  0
    1.3998    0.5682    1.8283 C   0  0  0  0  0  0  0  0  0  0  0  0
    2.0693   -0.7198    1.3295 C   0  0  0  0  0  0  0  0  0  0  0  0
    3.3179   -0.4614    0.5912 N   0  0  0  0  0  0  0  0  0  0  0  0
    4.5787   -0.4822    1.3255 C   0  0  0  0  0  0  0  0  0  0  0  0
    5.6846   -1.1530    0.5179 C   0  0  0  0  0  0  0  0  0  0  0  0
    5.6684   -0.7545   -0.9577 C   0  0  0  0  0  0  0  0  0  0  0  0
    4.6972    0.3798   -1.2473 C   0  0  0  0  0  0  0  0  0  0  0  0
    3.3202    0.0557   -0.7021 C   0  0  0  0  0  0  0  0  0  0  0  0
    2.3096    0.2710   -1.3626 O   0  0  0  0  0  0  0  0  0  0  0  0
    1.1064   -1.6882    0.6163 C   0  0  0  0  0  0  0  0  0  0  0  0
   -0.3557   -1.2306    0.7211 C   0  0  0  0  0  0  0  0  0  0  0  0
   -1.2879   -2.2209    0.0965 C   0  0  0  0  0  0  0  0  0  0  0  0
   -2.4689   -1.8261   -0.4016 C   0  0  0  0  0  0  0  0  0  0  0  0
   -3.4077   -2.8181   -1.0350 C   0  0  0  0  0  0  0  0  0  0  0  0
   -4.8084   -2.5357   -0.5519 C   0  0  0  0  0  0  0  0  0  0  0  0
   -5.5471   -3.4348   -0.1487 O   0  0  0  0  0  0  0  0  0  0  0  0
   -5.2995   -1.1146   -0.7107 C   0  0  0  0  0  0  0  0  0  0  0  0
   -3.4678    4.0182   -1.5569 H   0  0  0  0  0  0  0  0  0  0  0  0
   -3.5152    4.1794    0.2098 H   0  0  0  0  0  0  0  0  0  0  0  0
   -5.0060    3.7985   -0.6874 H   0  0  0  0  0  0  0  0  0  0  0  0
   -0.0899    0.1437   -0.9339 H   0  0  0  0  0  0  0  0  0  0  0  0
   -0.3153    1.7858    1.5506 H   0  0  0  0  0  0  0  0  0  0  0  0
    0.8299    1.8750    0.2226 H   0  0  0  0  0  0  0  0  0  0  0  0
    2.1498    1.3297    2.0763 H   0  0  0  0  0  0  0  0  0  0  0  0
    0.9032    0.3319    2.7804 H   0  0  0  0  0  0  0  0  0  0  0  0
    2.3814   -1.2548    2.2371 H   0  0  0  0  0  0  0  0  0  0  0  0
    4.8461    0.5574    1.5501 H   0  0  0  0  0  0  0  0  0  0  0  0
    4.4617   -1.0072    2.2791 H   0  0  0  0  0  0  0  0  0  0  0  0
    6.6567   -0.9141    0.9648 H   0  0  0  0  0  0  0  0  0  0  0  0
    5.5760   -2.2429    0.5852 H   0  0  0  0  0  0  0  0  0  0  0  0
    5.3808   -1.6308   -1.5531 H   0  0  0  0  0  0  0  0  0  0  0  0
    6.6778   -0.4786   -1.2832 H   0  0  0  0  0  0  0  0  0  0  0  0
    4.6223    0.5351   -2.3291 H   0  0  0  0  0  0  0  0  0  0  0  0
    5.0395    1.3187   -0.7978 H   0  0  0  0  0  0  0  0  0  0  0  0
    1.3793   -1.8362   -0.4353 H   0  0  0  0  0  0  0  0  0  0  0  0
    1.2137   -2.6814    1.0745 H   0  0  0  0  0  0  0  0  0  0  0  0
   -0.6338   -1.1878    1.7842 H   0  0  0  0  0  0  0  0  0  0  0  0
   -0.9996   -3.2690    0.0812 H   0  0  0  0  0  0  0  0  0  0  0  0
   -3.1473   -3.8494   -0.7719 H   0  0  0  0  0  0  0  0  0  0  0  0
   -3.3908   -2.7282   -2.1268 H   0  0  0  0  0  0  0  0  0  0  0  0
   -6.0777   -0.9472    0.0426 H   0  0  0  0  0  0  0  0  0  0  0  0
   -5.7377   -1.0190   -1.7099 H   0  0  0  0  0  0  0  0  0  0  0  0
  1  2  1  0
  2  3  1  0
  3  4  2  0
  3  5  1  0
  5  6  2  0
  6  7  1  0
  7  8  1  0
  8  9  2  0
  7 10  1  0
 10 11  1  0
 11 12  1  0
 12 13  1  0
 13 14  1  0
 14 15  1  0
 15 16  1  0
 16 17  1  0
 17 18  1  0
 18 19  1  0
 19 20  2  0
 13 21  1  0
 21 22  1  0
 22 23  1  0
 23 24  2  0
 24 25  1  0
 25 26  1  0
 26 27  2  0
 26 28  1  0
  8  2  1  0
 22 10  1  0
 28  5  1  0
 24  6  1  0
 19 14  1  0
  1 29  1  0
  1 30  1  0
  1 31  1  0
 10 32  1  0
 11 33  1  0
 11 34  1  0
 12 35  1  0
 12 36  1  0
 13 37  1  0
 15 38  1  0
 15 39  1  0
 16 40  1  0
 16 41  1  0
 17 42  1  0
 17 43  1  0
 18 44  1  0
 18 45  1  0
 21 46  1  0
 21 47  1  0
 22 48  1  0
 23 49  1  0
 25 50  1  0
 25 51  1  0
 28 52  1  0
 28 53  1  0
M  END
>  <smiles>
Cn1c(=O)c2c3n(c1=O)C1CCC(N4CCCCC4=O)CC1C=C3CC(=O)C2

$$$$
