mol_d7fc29884ce0
     RDKit          3D

 40 41  0  0  0  0  0  0  0  0999 V2000
   -3.0939    1.3942    1.1922 C   0  0  0  0  0  0  0  0  0  0  0  0
   -2.6913    0.9202   -0.1261 N   0  0  0  0  0  0  0  0  0  0  0  0
   -3.6355    0.0983   -0.8688 C   0  0  0  0  0  0  0  0  0  0  0  0
   -3.6465   -1.3625   -0.3860 C   0  0  0  0  0  0  0  0  0  0  0  0
   -2.2992   -2.0861   -0.5240 C   0  0  0  0  0  0  0  0  0  0  0  0
   -1.3673   -1.8875    0.6572 C   0  0  0  0  0  0  0  0  0  0  0  0
   -1.7171   -1.6275    1.8005 O   0  0  0  0  0  0  0  0  0  0  0  0
   -0.0744   -2.0748    0.2744 O   0  0  0  0  0  0  0  0  0  0  0  0
    0.9289   -2.0681    1.3094 C   0  0  0  0  0  0  0  0  0  0  0  0
    1.2717   -0.6794    1.8739 C   0  0  0  0  0  0  0  0  0  0  0  0
    1.7986    0.2817    0.8242 C   0  0  0  0  0  0  0  0  0  0  0  0
    3.1855    0.3018    0.5760 C   0  0  0  0  0  0  0  0  0  0  0  0
    3.7213    1.0813   -0.4577 C   0  0  0  0  0  0  0  0  0  0  0  0
    5.1765    1.1214   -0.7419 C   0  0  0  0  0  0  0  0  0  0  0  0
    5.7185    1.7787   -1.6107 O   0  0  0  0  0  0  0  0  0  0  0  0
    5.8912    0.3324    0.0808 O   0  0  0  0  0  0  0  0  0  0  0  0
    2.8677    1.8394   -1.2616 C   0  0  0  0  0  0  0  0  0  0  0  0
    1.4906    1.8272   -1.0284 C   0  0  0  0  0  0  0  0  0  0  0  0
    0.9507    1.0669    0.0150 C   0  0  0  0  0  0  0  0  0  0  0  0
   -0.4316    1.0755    0.2744 N   0  0  0  0  0  0  0  0  0  0  0  0
   -1.4267    1.1207   -0.6772 C   0  0  0  0  0  0  0  0  0  0  0  0
   -1.2369    1.1474   -1.8889 O   0  0  0  0  0  0  0  0  0  0  0  0
   -4.0742    1.8731    1.1112 H   0  0  0  0  0  0  0  0  0  0  0  0
   -3.1587    0.5503    1.8819 H   0  0  0  0  0  0  0  0  0  0  0  0
   -2.3828    2.1291    1.5793 H   0  0  0  0  0  0  0  0  0  0  0  0
   -3.3914    0.1148   -1.9369 H   0  0  0  0  0  0  0  0  0  0  0  0
   -4.6344    0.5363   -0.7626 H   0  0  0  0  0  0  0  0  0  0  0  0
   -4.0043   -1.4104    0.6489 H   0  0  0  0  0  0  0  0  0  0  0  0
   -4.3844   -1.8994   -0.9953 H   0  0  0  0  0  0  0  0  0  0  0  0
   -2.4800   -3.1655   -0.5898 H   0  0  0  0  0  0  0  0  0  0  0  0
   -1.7981   -1.7742   -1.4469 H   0  0  0  0  0  0  0  0  0  0  0  0
    1.8257   -2.5179    0.8680 H   0  0  0  0  0  0  0  0  0  0  0  0
    0.6123   -2.7365    2.1196 H   0  0  0  0  0  0  0  0  0  0  0  0
    2.0371   -0.8034    2.6517 H   0  0  0  0  0  0  0  0  0  0  0  0
    0.4172   -0.2449    2.3999 H   0  0  0  0  0  0  0  0  0  0  0  0
    3.8485   -0.3104    1.1845 H   0  0  0  0  0  0  0  0  0  0  0  0
    6.8143    0.4604   -0.2238 H   0  0  0  0  0  0  0  0  0  0  0  0
    3.2659    2.4433   -2.0746 H   0  0  0  0  0  0  0  0  0  0  0  0
    0.8493    2.4349   -1.6631 H   0  0  0  0  0  0  0  0  0  0  0  0
   -0.7427    0.7194    1.1637 H   0  0  0  0  0  0  0  0  0  0  0  0
  1  2  1  0
  2  3  1  0
  3  4  1  0
  4  5  1  0
  5  6  1  0
  6  7  2  0
  6  8  1  0
  8  9  1  0
  9 10  1  0
 10 11  1  0
 11 12  1  0
 12 13  2  0
 13 14  1  0
 14 15  2  0
 14 16  1  0
 13 17  1  0
 17 18  2  0
 18 19  1  0
 19 20  1  0
 20 21  1  0
 21 22  2  0
 21  2  1  0
 19 11  2  0
  1 23  1  0
  1 24  1  0
  1 25  1  0
  3 26  1  0
  3 27  1  0
  4 28  1  0
  4 29  1  0
  5 30  1  0
  5 31  1  0
  9 32  1  0
  9 33  1  0
 10 34  1  0
 10 35  1  0
 12 36  1  0
 16 37  1  0
 17 38  1  0
 18 39  1  0
 20 40  1  0
M  END
>  <smiles>
CN1CCCC(=O)OCCc2cc(C(=O)O)ccc2NC1=O

$$$$
