mol_7ff994edcd04
     RDKit          3D

 56 59  0  0  0  0  0  0  0  0999 V2000
   -2.1150    3.4420   -1.7106 C   0  0  0  0  0  0  0  0  0  0  0  0
   -2.1363    2.0522   -1.1380 C   0  0  0  0  0  0  0  0  0  0  0  0
   -2.9627    1.6021   -0.1698 C   0  0  0  0  0  0  0  0  0  0  0  0
   -2.8884    0.2042    0.2553 C   0  0  0  0  0  0  0  0  0  0  0  0
   -2.0529   -0.6625   -0.3599 C   0  0  0  0  0  0  0  0  0  0  0  0
   -1.1849   -0.2189   -1.3625 N   0  0  0  0  0  0  0  0  0  0  0  0
   -0.2361   -1.1115   -2.0363 C   0  0  0  0  0  0  0  0  0  0  0  0
    1.2176   -0.9276   -1.5774 C   0  0  0  0  0  0  0  0  0  0  0  0
    1.4814   -1.4722   -0.1755 C   0  0  0  0  0  0  0  0  0  0  0  0
    2.8618   -1.2467    0.2443 N   0  0  0  0  0  0  0  0  0  0  0  0
    3.9218   -2.0786   -0.3015 C   0  0  0  0  0  0  0  0  0  0  0  0
    5.0834   -1.2254   -0.7935 C   0  0  0  0  0  0  0  0  0  0  0  0
    5.4484   -0.0990    0.1796 C   0  0  0  0  0  0  0  0  0  0  0  0
    4.6584   -0.1559    1.4926 C   0  0  0  0  0  0  0  0  0  0  0  0
    4.9647    1.0601    2.3623 C   0  0  0  0  0  0  0  0  0  0  0  0
    3.1648   -0.2679    1.1866 C   0  0  0  0  0  0  0  0  0  0  0  0
    2.3155    0.4186    1.7470 O   0  0  0  0  0  0  0  0  0  0  0  0
   -1.1629    1.1147   -1.7840 C   0  0  0  0  0  0  0  0  0  0  0  0
   -0.4096    1.5335   -2.6639 O   0  0  0  0  0  0  0  0  0  0  0  0
   -2.0712   -2.1273    0.0275 C   0  0  0  0  0  0  0  0  0  0  0  0
   -2.8484   -2.4065    1.3098 C   0  0  0  0  0  0  0  0  0  0  0  0
   -4.0602   -1.6596    1.3175 O   0  0  0  0  0  0  0  0  0  0  0  0
   -3.7746   -0.2579    1.3988 C   0  0  0  0  0  0  0  0  0  0  0  0
   -5.1044    0.4820    1.4580 C   0  0  0  0  0  0  0  0  0  0  0  0
   -4.8291    1.9665    1.6019 C   0  0  0  0  0  0  0  0  0  0  0  0
   -4.0401    2.5012    0.4094 C   0  0  0  0  0  0  0  0  0  0  0  0
   -2.2763    3.4119   -2.7939 H   0  0  0  0  0  0  0  0  0  0  0  0
   -2.8859    4.0962   -1.2965 H   0  0  0  0  0  0  0  0  0  0  0  0
   -1.1468    3.9159   -1.5166 H   0  0  0  0  0  0  0  0  0  0  0  0
   -0.2786   -0.8811   -3.1094 H   0  0  0  0  0  0  0  0  0  0  0  0
   -0.5407   -2.1591   -1.9577 H   0  0  0  0  0  0  0  0  0  0  0  0
    1.5064    0.1293   -1.6165 H   0  0  0  0  0  0  0  0  0  0  0  0
    1.8678   -1.4469   -2.2922 H   0  0  0  0  0  0  0  0  0  0  0  0
    0.8070   -0.9945    0.5416 H   0  0  0  0  0  0  0  0  0  0  0  0
    1.2950   -2.5513   -0.1355 H   0  0  0  0  0  0  0  0  0  0  0  0
    3.5362   -2.6990   -1.1172 H   0  0  0  0  0  0  0  0  0  0  0  0
    4.2550   -2.7529    0.4963 H   0  0  0  0  0  0  0  0  0  0  0  0
    4.8204   -0.7773   -1.7602 H   0  0  0  0  0  0  0  0  0  0  0  0
    5.9550   -1.8638   -0.9782 H   0  0  0  0  0  0  0  0  0  0  0  0
    5.2623    0.8613   -0.3198 H   0  0  0  0  0  0  0  0  0  0  0  0
    6.5248   -0.1310    0.3874 H   0  0  0  0  0  0  0  0  0  0  0  0
    4.9451   -1.0541    2.0548 H   0  0  0  0  0  0  0  0  0  0  0  0
    4.4318    1.0002    3.3175 H   0  0  0  0  0  0  0  0  0  0  0  0
    4.6574    1.9897    1.8706 H   0  0  0  0  0  0  0  0  0  0  0  0
    6.0360    1.1253    2.5785 H   0  0  0  0  0  0  0  0  0  0  0  0
   -2.5457   -2.6795   -0.7939 H   0  0  0  0  0  0  0  0  0  0  0  0
   -1.0648   -2.5304    0.1614 H   0  0  0  0  0  0  0  0  0  0  0  0
   -3.1023   -3.4700    1.3680 H   0  0  0  0  0  0  0  0  0  0  0  0
   -2.2543   -2.1649    2.2001 H   0  0  0  0  0  0  0  0  0  0  0  0
   -3.2427   -0.0743    2.3437 H   0  0  0  0  0  0  0  0  0  0  0  0
   -5.6946    0.1221    2.3093 H   0  0  0  0  0  0  0  0  0  0  0  0
   -5.7056    0.2776    0.5627 H   0  0  0  0  0  0  0  0  0  0  0  0
   -4.2648    2.1492    2.5254 H   0  0  0  0  0  0  0  0  0  0  0  0
   -5.7715    2.5179    1.6974 H   0  0  0  0  0  0  0  0  0  0  0  0
   -4.7606    2.7110   -0.3933 H   0  0  0  0  0  0  0  0  0  0  0  0
   -3.6062    3.4629    0.7100 H   0  0  0  0  0  0  0  0  0  0  0  0
  1  2  1  0
  2  3  2  0
  3  4  1  0
  4  5  2  0
  5  6  1  0
  6  7  1  0
  7  8  1  0
  8  9  1  0
  9 10  1  0
 10 11  1  0
 11 12  1  0
 12 13  1  0
 13 14  1  0
 14 15  1  0
 14 16  1  0
 16 17  2  0
  6 18  1  0
 18 19  2  0
  5 20  1  0
 20 21  1  0
 21 22  1  0
 22 23  1  0
 23 24  1  0
 24 25  1  0
 25 26  1  0
 18  2  1  0
 26  3  1  0
 23  4  1  0
 16 10  1  0
  1 27  1  0
  1 28  1  0
  1 29  1  0
  7 30  1  0
  7 31  1  0
  8 32  1  0
  8 33  1  0
  9 34  1  0
  9 35  1  0
 11 36  1  0
 11 37  1  0
 12 38  1  0
 12 39  1  0
 13 40  1  0
 13 41  1  0
 14 42  1  0
 15 43  1  0
 15 44  1  0
 15 45  1  0
 20 46  1  0
 20 47  1  0
 21 48  1  0
 21 49  1  0
 23 50  1  0
 24 51  1  0
 24 52  1  0
 25 53  1  0
 25 54  1  0
 26 55  1  0
 26 56  1  0
M  END
>  <smiles>
Cc1c2c3c(n(CCCN4CCCC(C)C4=O)c1=O)CCOC3CCC2

$$$$
