mol_106fca3463b8
     RDKit          3D

 54 57  0  0  0  0  0  0  0  0999 V2000
    5.8054   -2.7590   -0.5540 C   0  0  0  0  0  0  0  0  0  0  0  0
    5.2260   -1.4122   -0.9622 C   0  0  0  0  0  0  0  0  0  0  0  0
    3.8328   -1.1425   -0.3740 C   0  0  0  0  0  0  0  0  0  0  0  0
    2.7579   -2.0755   -0.9165 C   0  0  0  0  0  0  0  0  0  0  0  0
    1.5141   -1.8678   -0.2456 O   0  0  0  0  0  0  0  0  0  0  0  0
    1.0991   -0.5637   -0.1972 C   0  0  0  0  0  0  0  0  0  0  0  0
   -0.2402   -0.3880    0.1204 C   0  0  0  0  0  0  0  0  0  0  0  0
   -0.8243    0.8853    0.2069 C   0  0  0  0  0  0  0  0  0  0  0  0
   -2.2970    1.0389    0.5894 C   0  0  0  0  0  0  0  0  0  0  0  0
   -3.0824   -0.1093    1.0261 N   0  0  0  0  0  0  0  0  0  0  0  0
   -2.7679   -0.7339    2.2945 C   0  0  0  0  0  0  0  0  0  0  0  0
   -3.6638   -1.9601    2.2754 C   0  0  0  0  0  0  0  0  0  0  0  0
   -3.6319   -2.3986    0.8140 C   0  0  0  0  0  0  0  0  0  0  0  0
   -4.8316   -3.1993    0.3879 C   0  0  0  0  0  0  0  0  0  0  0  0
   -5.3870   -3.1610   -0.6978 O   0  0  0  0  0  0  0  0  0  0  0  0
   -5.2338   -4.0880    1.3179 O   0  0  0  0  0  0  0  0  0  0  0  0
   -3.5162   -1.0859    0.0382 C   0  0  0  0  0  0  0  0  0  0  0  0
   -0.0142    2.0453   -0.0852 C   0  0  0  0  0  0  0  0  0  0  0  0
   -0.4811    3.4012   -0.1159 C   0  0  0  0  0  0  0  0  0  0  0  0
   -1.8034    3.6939    0.1359 O   0  0  0  0  0  0  0  0  0  0  0  0
   -2.4535    4.2098   -1.0284 C   0  0  0  0  0  0  0  0  0  0  0  0
    0.3663    4.4924   -0.3425 C   0  0  0  0  0  0  0  0  0  0  0  0
    1.7016    4.2792   -0.6140 C   0  0  0  0  0  0  0  0  0  0  0  0
    2.1888    2.9768   -0.6428 C   0  0  0  0  0  0  0  0  0  0  0  0
    1.3746    1.8477   -0.3785 C   0  0  0  0  0  0  0  0  0  0  0  0
    1.9283    0.5364   -0.4054 C   0  0  0  0  0  0  0  0  0  0  0  0
    3.3968    0.2958   -0.6798 C   0  0  0  0  0  0  0  0  0  0  0  0
    5.2336   -3.5891   -0.9783 H   0  0  0  0  0  0  0  0  0  0  0  0
    6.8347   -2.8490   -0.9160 H   0  0  0  0  0  0  0  0  0  0  0  0
    5.8194   -2.8672    0.5351 H   0  0  0  0  0  0  0  0  0  0  0  0
    5.9149   -0.6279   -0.6245 H   0  0  0  0  0  0  0  0  0  0  0  0
    5.1927   -1.3533   -2.0569 H   0  0  0  0  0  0  0  0  0  0  0  0
    3.8741   -1.2576    0.7184 H   0  0  0  0  0  0  0  0  0  0  0  0
    2.6122   -1.9539   -1.9977 H   0  0  0  0  0  0  0  0  0  0  0  0
    3.0273   -3.1217   -0.7435 H   0  0  0  0  0  0  0  0  0  0  0  0
   -0.8209   -1.2849    0.3029 H   0  0  0  0  0  0  0  0  0  0  0  0
   -2.3520    1.7625    1.4112 H   0  0  0  0  0  0  0  0  0  0  0  0
   -2.8206    1.4695   -0.2719 H   0  0  0  0  0  0  0  0  0  0  0  0
   -3.0031   -0.0851    3.1439 H   0  0  0  0  0  0  0  0  0  0  0  0
   -1.7203   -1.0397    2.3737 H   0  0  0  0  0  0  0  0  0  0  0  0
   -4.6835   -1.6976    2.5862 H   0  0  0  0  0  0  0  0  0  0  0  0
   -3.2994   -2.7433    2.9480 H   0  0  0  0  0  0  0  0  0  0  0  0
   -2.7382   -3.0108    0.6371 H   0  0  0  0  0  0  0  0  0  0  0  0
   -5.9849   -4.5524    0.8925 H   0  0  0  0  0  0  0  0  0  0  0  0
   -2.8183   -1.2048   -0.7973 H   0  0  0  0  0  0  0  0  0  0  0  0
   -4.4741   -0.7625   -0.3844 H   0  0  0  0  0  0  0  0  0  0  0  0
   -2.2083    3.6261   -1.9232 H   0  0  0  0  0  0  0  0  0  0  0  0
   -2.2049    5.2651   -1.1781 H   0  0  0  0  0  0  0  0  0  0  0  0
   -3.5331    4.1393   -0.8649 H   0  0  0  0  0  0  0  0  0  0  0  0
   -0.0180    5.5073   -0.3008 H   0  0  0  0  0  0  0  0  0  0  0  0
    2.3659    5.1178   -0.8026 H   0  0  0  0  0  0  0  0  0  0  0  0
    3.2446    2.8615   -0.8771 H   0  0  0  0  0  0  0  0  0  0  0  0
    4.0093    0.9646   -0.0632 H   0  0  0  0  0  0  0  0  0  0  0  0
    3.5876    0.5290   -1.7354 H   0  0  0  0  0  0  0  0  0  0  0  0
  1  2  1  0
  2  3  1  0
  3  4  1  0
  4  5  1  0
  5  6  1  0
  6  7  1  0
  7  8  2  0
  8  9  1  0
  9 10  1  0
 10 11  1  0
 11 12  1  0
 12 13  1  0
 13 14  1  0
 14 15  2  0
 14 16  1  0
 13 17  1  0
  8 18  1  0
 18 19  2  0
 19 20  1  0
 20 21  1  0
 19 22  1  0
 22 23  2  0
 23 24  1  0
 24 25  2  0
 25 26  1  0
 26 27  1  0
 27  3  1  0
 26  6  2  0
 17 10  1  0
 25 18  1  0
  1 28  1  0
  1 29  1  0
  1 30  1  0
  2 31  1  0
  2 32  1  0
  3 33  1  0
  4 34  1  0
  4 35  1  0
  7 36  1  0
  9 37  1  0
  9 38  1  0
 11 39  1  0
 11 40  1  0
 12 41  1  0
 12 42  1  0
 13 43  1  0
 16 44  1  0
 17 45  1  0
 17 46  1  0
 21 47  1  0
 21 48  1  0
 21 49  1  0
 22 50  1  0
 23 51  1  0
 24 52  1  0
 27 53  1  0
 27 54  1  0
M  END
>  <smiles>
CCC1COc2cc(CN3CCC(C(=O)O)C3)c3c(OC)cccc3c2C1

$$$$
