mol_1a0e4c892aeb
     RDKit          3D

 48 51  0  0  0  0  0  0  0  0999 V2000
    6.7109   -0.6742    0.7778 C   0  0  0  0  0  0  0  0  0  0  0  0
    5.2314   -0.5690    0.5347 C   0  0  0  0  0  0  0  0  0  0  0  0
    4.4553    0.1516    1.3704 C   0  0  0  0  0  0  0  0  0  0  0  0
    3.0175    0.2657    1.1935 C   0  0  0  0  0  0  0  0  0  0  0  0
    2.2994    1.2072    1.8267 C   0  0  0  0  0  0  0  0  0  0  0  0
    0.8360    1.3541    1.6100 C   0  0  0  0  0  0  0  0  0  0  0  0
    0.1873    2.0425    2.3913 O   0  0  0  0  0  0  0  0  0  0  0  0
    0.3033    0.6965    0.5081 N   0  0  0  0  0  0  0  0  0  0  0  0
   -1.1347    0.8443    0.1996 C   0  0  0  0  0  0  0  0  0  0  0  0
   -1.3352    1.8180   -0.9764 C   0  0  0  0  0  0  0  0  0  0  0  0
   -2.7168    1.8304   -1.6331 C   0  0  0  0  0  0  0  0  0  0  0  0
   -3.8831    1.7079   -0.6637 C   0  0  0  0  0  0  0  0  0  0  0  0
   -4.1650    0.3236   -0.3198 N   0  0  0  0  0  0  0  0  0  0  0  0
   -5.4256   -0.2485   -0.4637 C   0  0  0  0  0  0  0  0  0  0  0  0
   -6.4059    0.2562   -0.9851 O   0  0  0  0  0  0  0  0  0  0  0  0
   -5.3975   -1.6008    0.2022 C   0  0  0  0  0  0  0  0  0  0  0  0
   -3.9085   -1.8942    0.3127 C   0  0  0  0  0  0  0  0  0  0  0  0
   -3.2749   -0.5118    0.4559 C   0  0  0  0  0  0  0  0  0  0  0  0
   -1.8117   -0.5210    0.0065 C   0  0  0  0  0  0  0  0  0  0  0  0
    1.1964    0.0520   -0.4643 C   0  0  0  0  0  0  0  0  0  0  0  0
    2.3428   -0.6941    0.2320 C   0  0  0  0  0  0  0  0  0  0  0  0
    3.2979   -1.3155   -0.7526 C   0  0  0  0  0  0  0  0  0  0  0  0
    4.6268   -1.2519   -0.6041 C   0  0  0  0  0  0  0  0  0  0  0  0
    5.4334   -1.8554   -1.5413 O   0  0  0  0  0  0  0  0  0  0  0  0
    7.0201   -1.7236    0.8329 H   0  0  0  0  0  0  0  0  0  0  0  0
    7.2713   -0.1810   -0.0234 H   0  0  0  0  0  0  0  0  0  0  0  0
    7.0074   -0.2010    1.7206 H   0  0  0  0  0  0  0  0  0  0  0  0
    4.9019    0.6936    2.2012 H   0  0  0  0  0  0  0  0  0  0  0  0
    2.7309    1.9039    2.5358 H   0  0  0  0  0  0  0  0  0  0  0  0
   -1.5984    1.3111    1.0773 H   0  0  0  0  0  0  0  0  0  0  0  0
   -1.1053    2.8307   -0.6181 H   0  0  0  0  0  0  0  0  0  0  0  0
   -0.6023    1.6211   -1.7685 H   0  0  0  0  0  0  0  0  0  0  0  0
   -2.8107    2.7748   -2.1839 H   0  0  0  0  0  0  0  0  0  0  0  0
   -2.7718    1.0323   -2.3844 H   0  0  0  0  0  0  0  0  0  0  0  0
   -3.7111    2.2692    0.2611 H   0  0  0  0  0  0  0  0  0  0  0  0
   -4.7758    2.1341   -1.1350 H   0  0  0  0  0  0  0  0  0  0  0  0
   -5.9177   -2.3480   -0.4016 H   0  0  0  0  0  0  0  0  0  0  0  0
   -5.8654   -1.5188    1.1881 H   0  0  0  0  0  0  0  0  0  0  0  0
   -3.5694   -2.3863   -0.6081 H   0  0  0  0  0  0  0  0  0  0  0  0
   -3.6724   -2.5552    1.1521 H   0  0  0  0  0  0  0  0  0  0  0  0
   -3.3518   -0.1818    1.5003 H   0  0  0  0  0  0  0  0  0  0  0  0
   -1.7278   -0.8436   -1.0389 H   0  0  0  0  0  0  0  0  0  0  0  0
   -1.2864   -1.2748    0.6084 H   0  0  0  0  0  0  0  0  0  0  0  0
    0.6207   -0.6470   -1.0800 H   0  0  0  0  0  0  0  0  0  0  0  0
    1.5828    0.8394   -1.1247 H   0  0  0  0  0  0  0  0  0  0  0  0
    1.9138   -1.5148    0.8251 H   0  0  0  0  0  0  0  0  0  0  0  0
    2.8849   -1.8654   -1.5933 H   0  0  0  0  0  0  0  0  0  0  0  0
    6.3530   -1.5825   -1.4051 H   0  0  0  0  0  0  0  0  0  0  0  0
  1  2  1  0
  2  3  2  0
  3  4  1  0
  4  5  2  0
  5  6  1  0
  6  7  2  0
  6  8  1  0
  8  9  1  0
  9 10  1  0
 10 11  1  0
 11 12  1  0
 12 13  1  0
 13 14  1  0
 14 15  2  0
 14 16  1  0
 16 17  1  0
 17 18  1  0
 18 19  1  0
  8 20  1  0
 20 21  1  0
 21 22  1  0
 22 23  2  0
 23 24  1  0
 23  2  1  0
 21  4  1  0
 19  9  1  0
 18 13  1  0
  1 25  1  0
  1 26  1  0
  1 27  1  0
  3 28  1  0
  5 29  1  0
  9 30  1  0
 10 31  1  0
 10 32  1  0
 11 33  1  0
 11 34  1  0
 12 35  1  0
 12 36  1  0
 16 37  1  0
 16 38  1  0
 17 39  1  0
 17 40  1  0
 18 41  1  0
 19 42  1  0
 19 43  1  0
 20 44  1  0
 20 45  1  0
 21 46  1  0
 22 47  1  0
 24 48  1  0
M  END
>  <smiles>
CC1=CC2=CC(=O)N(C3CCCN4C(=O)CCC4C3)CC2C=C1O

$$$$
