mol_b83f4da28f46
     RDKit          3D

 55 58  0  0  0  0  0  0  0  0999 V2000
   -2.6427    2.5761    1.0447 C   0  0  0  0  0  0  0  0  0  0  0  0
   -2.8884    1.2464    1.5754 N   0  0  0  0  0  0  0  0  0  0  0  0
   -3.4688    1.1042    2.8973 C   0  0  0  0  0  0  0  0  0  0  0  0
   -2.9245    0.1806    0.6834 C   0  0  0  0  0  0  0  0  0  0  0  0
   -4.1411   -0.3067    0.1544 C   0  0  0  0  0  0  0  0  0  0  0  0
   -5.4480    0.3152    0.4732 C   0  0  0  0  0  0  0  0  0  0  0  0
   -5.7379    1.4951    0.4789 O   0  0  0  0  0  0  0  0  0  0  0  0
   -6.3642   -0.6292    0.7691 O   0  0  0  0  0  0  0  0  0  0  0  0
   -4.1579   -1.3674   -0.7605 C   0  0  0  0  0  0  0  0  0  0  0  0
   -2.9682   -1.9560   -1.1758 C   0  0  0  0  0  0  0  0  0  0  0  0
   -1.7363   -1.5115   -0.6754 C   0  0  0  0  0  0  0  0  0  0  0  0
   -0.4691   -2.1170   -1.1254 C   0  0  0  0  0  0  0  0  0  0  0  0
   -0.4503   -3.3626   -1.9298 C   0  0  0  0  0  0  0  0  0  0  0  0
    0.0341   -3.5110   -3.0363 O   0  0  0  0  0  0  0  0  0  0  0  0
   -1.0322   -4.3813   -1.2724 O   0  0  0  0  0  0  0  0  0  0  0  0
    0.7129   -1.5281   -0.8254 C   0  0  0  0  0  0  0  0  0  0  0  0
    0.7498   -0.3783   -0.0142 N   0  0  0  0  0  0  0  0  0  0  0  0
   -0.3784   -0.0396    0.7715 C   0  0  0  0  0  0  0  0  0  0  0  0
   -0.2652    0.5456    1.8460 O   0  0  0  0  0  0  0  0  0  0  0  0
   -1.7202   -0.4571    0.2547 C   0  0  0  0  0  0  0  0  0  0  0  0
    2.0254    0.3044    0.3263 C   0  0  0  0  0  0  0  0  0  0  0  0
    1.9284    1.8499    0.4254 C   0  0  0  0  0  0  0  0  0  0  0  0
    3.2142    2.4396    1.0132 C   0  0  0  0  0  0  0  0  0  0  0  0
    4.4753    2.0064    0.2731 C   0  0  0  0  0  0  0  0  0  0  0  0
    4.5221    0.4970    0.0278 C   0  0  0  0  0  0  0  0  0  0  0  0
    3.2200   -0.0543   -0.6040 C   0  0  0  0  0  0  0  0  0  0  0  0
    3.0755    0.5125   -2.0413 C   0  0  0  0  0  0  0  0  0  0  0  0
    3.2871   -1.5828   -0.6584 C   0  0  0  0  0  0  0  0  0  0  0  0
    2.0235   -2.1507   -1.2889 C   0  0  0  0  0  0  0  0  0  0  0  0
   -3.5373    2.9739    0.5558 H   0  0  0  0  0  0  0  0  0  0  0  0
   -1.8244    2.5746    0.3160 H   0  0  0  0  0  0  0  0  0  0  0  0
   -2.3608    3.2672    1.8464 H   0  0  0  0  0  0  0  0  0  0  0  0
   -2.9646    1.7693    3.6068 H   0  0  0  0  0  0  0  0  0  0  0  0
   -4.5321    1.3609    2.8974 H   0  0  0  0  0  0  0  0  0  0  0  0
   -3.3544    0.0822    3.2759 H   0  0  0  0  0  0  0  0  0  0  0  0
   -7.1701   -0.1105    0.9741 H   0  0  0  0  0  0  0  0  0  0  0  0
   -5.1008   -1.7253   -1.1696 H   0  0  0  0  0  0  0  0  0  0  0  0
   -3.0288   -2.7625   -1.9035 H   0  0  0  0  0  0  0  0  0  0  0  0
   -0.9308   -5.1471   -1.8751 H   0  0  0  0  0  0  0  0  0  0  0  0
    2.2579   -0.0617    1.3387 H   0  0  0  0  0  0  0  0  0  0  0  0
    1.7161    2.2894   -0.5554 H   0  0  0  0  0  0  0  0  0  0  0  0
    1.1060    2.1780    1.0652 H   0  0  0  0  0  0  0  0  0  0  0  0
    3.1490    3.5337    1.0160 H   0  0  0  0  0  0  0  0  0  0  0  0
    3.2960    2.1292    2.0627 H   0  0  0  0  0  0  0  0  0  0  0  0
    5.3576    2.3079    0.8502 H   0  0  0  0  0  0  0  0  0  0  0  0
    4.5416    2.5443   -0.6790 H   0  0  0  0  0  0  0  0  0  0  0  0
    4.7046   -0.0038    0.9881 H   0  0  0  0  0  0  0  0  0  0  0  0
    5.3838    0.2624   -0.6096 H   0  0  0  0  0  0  0  0  0  0  0  0
    3.1733    1.6002   -2.0844 H   0  0  0  0  0  0  0  0  0  0  0  0
    2.1054    0.2773   -2.4893 H   0  0  0  0  0  0  0  0  0  0  0  0
    3.8525    0.1001   -2.6956 H   0  0  0  0  0  0  0  0  0  0  0  0
    4.1617   -1.9180   -1.2299 H   0  0  0  0  0  0  0  0  0  0  0  0
    3.4041   -1.9942    0.3533 H   0  0  0  0  0  0  0  0  0  0  0  0
    2.0986   -2.0377   -2.3780 H   0  0  0  0  0  0  0  0  0  0  0  0
    2.0211   -3.2291   -1.0842 H   0  0  0  0  0  0  0  0  0  0  0  0
  1  2  1  0
  2  3  1  0
  2  4  1  0
  4  5  2  0
  5  6  1  0
  6  7  2  0
  6  8  1  0
  5  9  1  0
  9 10  2  0
 10 11  1  0
 11 12  1  0
 12 13  1  0
 13 14  2  0
 13 15  1  0
 12 16  2  0
 16 17  1  0
 17 18  1  0
 18 19  2  0
 18 20  1  0
 17 21  1  0
 21 22  1  0
 22 23  1  0
 23 24  1  0
 24 25  1  0
 25 26  1  0
 26 27  1  0
 26 28  1  0
 28 29  1  0
 20  4  1  0
 26 21  1  0
 20 11  2  0
 29 16  1  0
  1 30  1  0
  1 31  1  0
  1 32  1  0
  3 33  1  0
  3 34  1  0
  3 35  1  0
  8 36  1  0
  9 37  1  0
 10 38  1  0
 15 39  1  0
 21 40  1  0
 22 41  1  0
 22 42  1  0
 23 43  1  0
 23 44  1  0
 24 45  1  0
 24 46  1  0
 25 47  1  0
 25 48  1  0
 27 49  1  0
 27 50  1  0
 27 51  1  0
 28 52  1  0
 28 53  1  0
 29 54  1  0
 29 55  1  0
M  END
>  <smiles>
CN(C)c1c(C(=O)O)ccc2c(C(=O)O)c3n(c(=O)c12)C1CCCCC1(C)CC3

$$$$
