mol_404f70615086
     RDKit          3D

 51 54  0  0  0  0  0  0  0  0999 V2000
   -3.1047   -1.6786   -0.5303 C   0  0  0  0  0  0  0  0  0  0  0  0
   -2.0041   -0.7271   -0.0517 C   0  0  0  0  0  0  0  0  0  0  0  0
   -0.7773   -1.5010    0.1876 N   0  0  0  0  0  0  0  0  0  0  0  0
   -0.4751   -2.2097    1.3262 C   0  0  0  0  0  0  0  0  0  0  0  0
   -1.1856   -2.2245    2.3259 O   0  0  0  0  0  0  0  0  0  0  0  0
    0.8465   -2.9549    1.2810 C   0  0  0  0  0  0  0  0  0  0  0  0
    2.0561   -2.0526    1.5581 C   0  0  0  0  0  0  0  0  0  0  0  0
    2.6310   -1.4688    0.2815 C   0  0  0  0  0  0  0  0  0  0  0  0
    3.4100   -2.3425   -0.4036 N   0  0  0  0  0  0  0  0  0  0  0  0
    3.8292   -1.9851   -1.6350 C   0  0  0  0  0  0  0  0  0  0  0  0
    3.4621   -0.8072   -2.2668 C   0  0  0  0  0  0  0  0  0  0  0  0
    3.9218   -0.5958   -3.6584 C   0  0  0  0  0  0  0  0  0  0  0  0
    3.3469    0.0112   -4.5402 O   0  0  0  0  0  0  0  0  0  0  0  0
    5.1219   -1.1637   -3.8806 O   0  0  0  0  0  0  0  0  0  0  0  0
    2.6307    0.1042   -1.5706 C   0  0  0  0  0  0  0  0  0  0  0  0
    2.1384    1.3081   -2.1269 C   0  0  0  0  0  0  0  0  0  0  0  0
    1.2720    2.1442   -1.4193 C   0  0  0  0  0  0  0  0  0  0  0  0
    0.9221    1.8508   -0.1025 C   0  0  0  0  0  0  0  0  0  0  0  0
    1.5007    0.7389    0.5010 C   0  0  0  0  0  0  0  0  0  0  0  0
    2.2593   -0.2048   -0.2346 C   0  0  0  0  0  0  0  0  0  0  0  0
   -0.0574    2.7634    0.5496 C   0  0  0  0  0  0  0  0  0  0  0  0
    0.0856    3.9674    0.3272 O   0  0  0  0  0  0  0  0  0  0  0  0
   -1.1731    2.2710    1.2317 N   0  0  0  0  0  0  0  0  0  0  0  0
   -2.3122    3.1777    1.3786 C   0  0  0  0  0  0  0  0  0  0  0  0
   -3.6426    2.4226    1.5011 C   0  0  0  0  0  0  0  0  0  0  0  0
   -3.6261    1.1356    0.6700 C   0  0  0  0  0  0  0  0  0  0  0  0
   -2.4999    0.1683    1.1223 C   0  0  0  0  0  0  0  0  0  0  0  0
   -1.3818    0.9526    1.8222 C   0  0  0  0  0  0  0  0  0  0  0  0
   -3.9918   -1.1333   -0.8656 H   0  0  0  0  0  0  0  0  0  0  0  0
   -3.4061   -2.3673    0.2665 H   0  0  0  0  0  0  0  0  0  0  0  0
   -2.7520   -2.2852   -1.3721 H   0  0  0  0  0  0  0  0  0  0  0  0
   -1.7442   -0.0701   -0.8917 H   0  0  0  0  0  0  0  0  0  0  0  0
   -0.1580   -1.6077   -0.6075 H   0  0  0  0  0  0  0  0  0  0  0  0
    0.9328   -3.4832    0.3241 H   0  0  0  0  0  0  0  0  0  0  0  0
    0.7936   -3.7250    2.0610 H   0  0  0  0  0  0  0  0  0  0  0  0
    1.8285   -1.2881    2.3054 H   0  0  0  0  0  0  0  0  0  0  0  0
    2.8452   -2.6701    2.0084 H   0  0  0  0  0  0  0  0  0  0  0  0
    4.4627   -2.7228   -2.1220 H   0  0  0  0  0  0  0  0  0  0  0  0
    5.3306   -0.9352   -4.8121 H   0  0  0  0  0  0  0  0  0  0  0  0
    2.3905    1.6086   -3.1424 H   0  0  0  0  0  0  0  0  0  0  0  0
    0.8755    3.0350   -1.9054 H   0  0  0  0  0  0  0  0  0  0  0  0
    1.3678    0.6017    1.5667 H   0  0  0  0  0  0  0  0  0  0  0  0
   -2.3533    3.8465    0.5107 H   0  0  0  0  0  0  0  0  0  0  0  0
   -2.1429    3.7997    2.2648 H   0  0  0  0  0  0  0  0  0  0  0  0
   -4.4671    3.0729    1.1884 H   0  0  0  0  0  0  0  0  0  0  0  0
   -3.8278    2.1685    2.5525 H   0  0  0  0  0  0  0  0  0  0  0  0
   -3.4976    1.4052   -0.3859 H   0  0  0  0  0  0  0  0  0  0  0  0
   -4.5968    0.6329    0.7517 H   0  0  0  0  0  0  0  0  0  0  0  0
   -2.9316   -0.4952    1.8840 H   0  0  0  0  0  0  0  0  0  0  0  0
   -0.4759    0.3765    1.9115 H   0  0  0  0  0  0  0  0  0  0  0  0
   -1.6764    1.1361    2.8654 H   0  0  0  0  0  0  0  0  0  0  0  0
  1  2  1  0
  2  3  1  0
  3  4  1  0
  4  5  2  0
  4  6  1  0
  6  7  1  0
  7  8  1  0
  8  9  1  0
  9 10  2  0
 10 11  1  0
 11 12  1  0
 12 13  2  0
 12 14  1  0
 11 15  2  0
 15 16  1  0
 16 17  2  0
 17 18  1  0
 18 19  2  0
 19 20  1  0
 18 21  1  0
 21 22  2  0
 21 23  1  0
 23 24  1  0
 24 25  1  0
 25 26  1  0
 26 27  1  0
 27 28  1  0
 27  2  1  0
 20  8  2  0
 28 23  1  0
 20 15  1  0
  1 29  1  0
  1 30  1  0
  1 31  1  0
  2 32  1  0
  3 33  1  0
  6 34  1  0
  6 35  1  0
  7 36  1  0
  7 37  1  0
 10 38  1  0
 14 39  1  0
 16 40  1  0
 17 41  1  0
 19 42  1  0
 24 43  1  0
 24 44  1  0
 25 45  1  0
 25 46  1  0
 26 47  1  0
 26 48  1  0
 27 49  1  0
 28 50  1  0
 28 51  1  0
M  END
>  <smiles>
CC1NC(=O)CCc2ncc(C(=O)O)c3ccc(cc23)C(=O)N2CCCC1C2

$$$$
