mol_b03aaf1049c4
     RDKit          3D

 53 57  0  0  0  0  0  0  0  0999 V2000
   -5.9490    1.8472   -0.8020 C   0  0  0  0  0  0  0  0  0  0  0  0
   -4.5188    1.4345   -1.1357 C   0  0  0  0  0  0  0  0  0  0  0  0
   -3.9718    0.1753   -0.4802 C   0  0  0  0  0  0  0  0  0  0  0  0
   -4.8216   -0.6742    0.2538 C   0  0  0  0  0  0  0  0  0  0  0  0
   -4.3493   -1.8356    0.8708 C   0  0  0  0  0  0  0  0  0  0  0  0
   -5.2873   -2.7420    1.6121 C   0  0  0  0  0  0  0  0  0  0  0  0
   -3.0003   -2.1626    0.7465 C   0  0  0  0  0  0  0  0  0  0  0  0
   -2.1163   -1.3377    0.0304 C   0  0  0  0  0  0  0  0  0  0  0  0
   -2.5975   -0.1754   -0.6150 C   0  0  0  0  0  0  0  0  0  0  0  0
   -1.6702    0.6304   -1.4968 C   0  0  0  0  0  0  0  0  0  0  0  0
   -0.5231    1.2600   -0.7615 C   0  0  0  0  0  0  0  0  0  0  0  0
   -0.2914    2.6437   -0.8094 C   0  0  0  0  0  0  0  0  0  0  0  0
    0.8473    3.1974   -0.2418 C   0  0  0  0  0  0  0  0  0  0  0  0
    0.9978    4.5516   -0.3278 O   0  0  0  0  0  0  0  0  0  0  0  0
    1.8204    2.4018    0.3618 C   0  0  0  0  0  0  0  0  0  0  0  0
    1.6178    1.0063    0.4217 C   0  0  0  0  0  0  0  0  0  0  0  0
    2.4157   -0.0915    0.8698 C   0  0  0  0  0  0  0  0  0  0  0  0
    3.7923   -0.0350    1.4480 C   0  0  0  0  0  0  0  0  0  0  0  0
    4.7526   -0.5095    0.4724 N   0  0  0  0  0  0  0  0  0  0  0  0
    5.0016    0.1602   -0.7791 C   0  0  0  0  0  0  0  0  0  0  0  0
    6.2802   -0.4910   -1.2698 C   0  0  0  0  0  0  0  0  0  0  0  0
    6.2062   -1.9052   -0.7064 C   0  0  0  0  0  0  0  0  0  0  0  0
    5.4155   -1.7214    0.5657 C   0  0  0  0  0  0  0  0  0  0  0  0
    5.3557   -2.5232    1.4823 O   0  0  0  0  0  0  0  0  0  0  0  0
    1.6713   -1.2337    0.6426 C   0  0  0  0  0  0  0  0  0  0  0  0
    0.4175   -0.8845    0.1767 N   0  0  0  0  0  0  0  0  0  0  0  0
    0.4290    0.4777   -0.0858 C   0  0  0  0  0  0  0  0  0  0  0  0
   -0.6817   -1.7641    0.0682 C   0  0  0  0  0  0  0  0  0  0  0  0
   -0.4294   -2.9677    0.1211 O   0  0  0  0  0  0  0  0  0  0  0  0
   -6.6721    1.1008   -1.1465 H   0  0  0  0  0  0  0  0  0  0  0  0
   -6.0820    1.9920    0.2752 H   0  0  0  0  0  0  0  0  0  0  0  0
   -6.1902    2.7926   -1.2994 H   0  0  0  0  0  0  0  0  0  0  0  0
   -3.8733    2.2744   -0.8503 H   0  0  0  0  0  0  0  0  0  0  0  0
   -4.4548    1.3079   -2.2233 H   0  0  0  0  0  0  0  0  0  0  0  0
   -5.8802   -0.4438    0.3539 H   0  0  0  0  0  0  0  0  0  0  0  0
   -4.7646   -3.2784    2.4111 H   0  0  0  0  0  0  0  0  0  0  0  0
   -6.0945   -2.1696    2.0810 H   0  0  0  0  0  0  0  0  0  0  0  0
   -5.7240   -3.4718    0.9234 H   0  0  0  0  0  0  0  0  0  0  0  0
   -2.6253   -3.0666    1.2266 H   0  0  0  0  0  0  0  0  0  0  0  0
   -2.2016    1.3984   -2.0658 H   0  0  0  0  0  0  0  0  0  0  0  0
   -1.2657   -0.0384   -2.2698 H   0  0  0  0  0  0  0  0  0  0  0  0
   -0.9987    3.3003   -1.3120 H   0  0  0  0  0  0  0  0  0  0  0  0
    1.8049    4.8068    0.1485 H   0  0  0  0  0  0  0  0  0  0  0  0
    2.7295    2.8360    0.7620 H   0  0  0  0  0  0  0  0  0  0  0  0
    4.0722    0.9854    1.7284 H   0  0  0  0  0  0  0  0  0  0  0  0
    3.8422   -0.6550    2.3500 H   0  0  0  0  0  0  0  0  0  0  0  0
    5.1182    1.2368   -0.6263 H   0  0  0  0  0  0  0  0  0  0  0  0
    4.1667   -0.0348   -1.4600 H   0  0  0  0  0  0  0  0  0  0  0  0
    6.3784   -0.4693   -2.3587 H   0  0  0  0  0  0  0  0  0  0  0  0
    7.1482    0.0267   -0.8424 H   0  0  0  0  0  0  0  0  0  0  0  0
    5.6529   -2.5746   -1.3722 H   0  0  0  0  0  0  0  0  0  0  0  0
    7.1978   -2.3139   -0.4983 H   0  0  0  0  0  0  0  0  0  0  0  0
    1.9030   -2.2735    0.8438 H   0  0  0  0  0  0  0  0  0  0  0  0
  1  2  1  0
  2  3  1  0
  3  4  1  0
  4  5  2  0
  5  6  1  0
  5  7  1  0
  7  8  2  0
  8  9  1  0
  9 10  1  0
 10 11  1  0
 11 12  1  0
 12 13  2  0
 13 14  1  0
 13 15  1  0
 15 16  2  0
 16 17  1  0
 17 18  1  0
 18 19  1  0
 19 20  1  0
 20 21  1  0
 21 22  1  0
 22 23  1  0
 23 24  2  0
 17 25  2  0
 25 26  1  0
 26 27  1  0
 26 28  1  0
 28 29  2  0
  9  3  2  0
 27 11  2  0
 28  8  1  0
 27 16  1  0
 23 19  1  0
  1 30  1  0
  1 31  1  0
  1 32  1  0
  2 33  1  0
  2 34  1  0
  4 35  1  0
  6 36  1  0
  6 37  1  0
  6 38  1  0
  7 39  1  0
 10 40  1  0
 10 41  1  0
 12 42  1  0
 14 43  1  0
 15 44  1  0
 18 45  1  0
 18 46  1  0
 20 47  1  0
 20 48  1  0
 21 49  1  0
 21 50  1  0
 22 51  1  0
 22 52  1  0
 25 53  1  0
M  END
>  <smiles>
CCc1cc(C)cc2c1Cc1cc(O)cc3c(CN4CCCC4=O)cn(c13)C2=O

$$$$
