mol_f61362971a72
     RDKit          3D

 49 52  0  0  0  0  0  0  0  0999 V2000
    5.9167   -2.1377   -0.3498 C   0  0  0  0  0  0  0  0  0  0  0  0
    4.7149   -1.3827   -0.2578 O   0  0  0  0  0  0  0  0  0  0  0  0
    4.8428   -0.0206   -0.1272 C   0  0  0  0  0  0  0  0  0  0  0  0
    6.0560    0.6774   -0.1100 C   0  0  0  0  0  0  0  0  0  0  0  0
    6.0688    2.0699    0.0266 C   0  0  0  0  0  0  0  0  0  0  0  0
    4.8734    2.7693    0.1463 C   0  0  0  0  0  0  0  0  0  0  0  0
    4.9593    4.1284    0.2755 O   0  0  0  0  0  0  0  0  0  0  0  0
    3.6594    2.0799    0.1303 C   0  0  0  0  0  0  0  0  0  0  0  0
    2.3669    2.7778    0.2528 C   0  0  0  0  0  0  0  0  0  0  0  0
    2.3283    4.0012    0.3659 O   0  0  0  0  0  0  0  0  0  0  0  0
    1.1262    1.9703    0.2321 C   0  0  0  0  0  0  0  0  0  0  0  0
    1.1713    0.6283    0.0968 C   0  0  0  0  0  0  0  0  0  0  0  0
    0.0100   -0.1385    0.0734 N   0  0  0  0  0  0  0  0  0  0  0  0
   -0.0261   -1.6068    0.0919 C   0  0  0  0  0  0  0  0  0  0  0  0
   -1.4872   -1.9812    0.3307 C   0  0  0  0  0  0  0  0  0  0  0  0
   -2.2332   -0.8204   -0.3170 C   0  0  0  0  0  0  0  0  0  0  0  0
   -3.6683   -0.7355   -0.0113 N   0  0  0  0  0  0  0  0  0  0  0  0
   -4.5626   -0.5782   -1.1562 C   0  0  0  0  0  0  0  0  0  0  0  0
   -6.0247   -0.8513   -0.8529 C   0  0  0  0  0  0  0  0  0  0  0  0
   -6.4284   -0.0776    0.3849 C   0  0  0  0  0  0  0  0  0  0  0  0
   -5.5926   -0.5510    1.5565 C   0  0  0  0  0  0  0  0  0  0  0  0
   -4.0978   -0.5551    1.2983 C   0  0  0  0  0  0  0  0  0  0  0  0
   -3.3240   -0.4771    2.2522 O   0  0  0  0  0  0  0  0  0  0  0  0
   -1.3659    0.3897    0.0760 C   0  0  0  0  0  0  0  0  0  0  0  0
    2.3984    0.0175   -0.0204 N   0  0  0  0  0  0  0  0  0  0  0  0
    3.6317    0.6880   -0.0067 C   0  0  0  0  0  0  0  0  0  0  0  0
    6.4824   -1.8704   -1.2483 H   0  0  0  0  0  0  0  0  0  0  0  0
    5.6417   -3.1937   -0.4323 H   0  0  0  0  0  0  0  0  0  0  0  0
    6.5261   -2.0224    0.5526 H   0  0  0  0  0  0  0  0  0  0  0  0
    7.0115    0.1713   -0.2012 H   0  0  0  0  0  0  0  0  0  0  0  0
    7.0127    2.6092    0.0396 H   0  0  0  0  0  0  0  0  0  0  0  0
    4.0426    4.4800    0.3514 H   0  0  0  0  0  0  0  0  0  0  0  0
    0.2088    2.5301    0.3409 H   0  0  0  0  0  0  0  0  0  0  0  0
    0.6089   -2.0221    0.8819 H   0  0  0  0  0  0  0  0  0  0  0  0
    0.3135   -1.9937   -0.8759 H   0  0  0  0  0  0  0  0  0  0  0  0
   -1.6769   -2.0527    1.4062 H   0  0  0  0  0  0  0  0  0  0  0  0
   -1.7446   -2.9478   -0.1135 H   0  0  0  0  0  0  0  0  0  0  0  0
   -2.1385   -0.9514   -1.4049 H   0  0  0  0  0  0  0  0  0  0  0  0
   -4.4376    0.4492   -1.5188 H   0  0  0  0  0  0  0  0  0  0  0  0
   -4.2376   -1.2582   -1.9520 H   0  0  0  0  0  0  0  0  0  0  0  0
   -6.1800   -1.9249   -0.6897 H   0  0  0  0  0  0  0  0  0  0  0  0
   -6.6448   -0.5587   -1.7071 H   0  0  0  0  0  0  0  0  0  0  0  0
   -7.4918   -0.2312    0.5982 H   0  0  0  0  0  0  0  0  0  0  0  0
   -6.2785    0.9967    0.2228 H   0  0  0  0  0  0  0  0  0  0  0  0
   -5.7900    0.0902    2.4231 H   0  0  0  0  0  0  0  0  0  0  0  0
   -5.8749   -1.5747    1.8305 H   0  0  0  0  0  0  0  0  0  0  0  0
   -1.6042    0.7855    1.0675 H   0  0  0  0  0  0  0  0  0  0  0  0
   -1.4977    1.1919   -0.6589 H   0  0  0  0  0  0  0  0  0  0  0  0
    2.4354   -0.9861   -0.1267 H   0  0  0  0  0  0  0  0  0  0  0  0
  1  2  1  0
  2  3  1  0
  3  4  1  0
  4  5  2  0
  5  6  1  0
  6  7  1  0
  6  8  2  0
  8  9  1  0
  9 10  2  0
  9 11  1  0
 11 12  2  0
 12 13  1  0
 13 14  1  0
 14 15  1  0
 15 16  1  0
 16 17  1  0
 17 18  1  0
 18 19  1  0
 19 20  1  0
 20 21  1  0
 21 22  1  0
 22 23  2  0
 16 24  1  0
 12 25  1  0
 25 26  1  0
 26  3  2  0
 26  8  1  0
 24 13  1  0
 22 17  1  0
  1 27  1  0
  1 28  1  0
  1 29  1  0
  4 30  1  0
  5 31  1  0
  7 32  1  0
 11 33  1  0
 14 34  1  0
 14 35  1  0
 15 36  1  0
 15 37  1  0
 16 38  1  0
 18 39  1  0
 18 40  1  0
 19 41  1  0
 19 42  1  0
 20 43  1  0
 20 44  1  0
 21 45  1  0
 21 46  1  0
 24 47  1  0
 24 48  1  0
 25 49  1  0
M  END
>  <smiles>
COc1ccc(O)c2c(=O)cc(N3CCC(N4CCCCC4=O)C3)[nH]c12

$$$$
