mol_d106c57699bc
     RDKit          3D

 52 55  0  0  0  0  0  0  0  0999 V2000
   -4.3834   -4.4369    0.3072 N   0  0  0  0  0  0  0  0  0  0  0  0
   -4.7733   -3.1339   -0.2170 C   0  0  0  0  0  0  0  0  0  0  0  0
   -3.9486   -2.0319    0.3955 C   0  0  0  0  0  0  0  0  0  0  0  0
   -4.3507   -1.4298    1.5932 C   0  0  0  0  0  0  0  0  0  0  0  0
   -3.5721   -0.4312    2.1657 C   0  0  0  0  0  0  0  0  0  0  0  0
   -4.0044    0.1065    3.3426 O   0  0  0  0  0  0  0  0  0  0  0  0
   -2.3871   -0.0089    1.5680 C   0  0  0  0  0  0  0  0  0  0  0  0
   -1.9717   -0.5950    0.3660 C   0  0  0  0  0  0  0  0  0  0  0  0
   -0.7470   -0.1977   -0.2549 N   0  0  0  0  0  0  0  0  0  0  0  0
    0.0511   -1.0451   -1.0009 C   0  0  0  0  0  0  0  0  0  0  0  0
    1.2275   -0.4054   -1.3368 C   0  0  0  0  0  0  0  0  0  0  0  0
    2.3768   -0.9943   -2.0881 C   0  0  0  0  0  0  0  0  0  0  0  0
    3.4249   -1.3775   -1.1635 N   0  0  0  0  0  0  0  0  0  0  0  0
    3.2642   -2.4173   -0.1790 C   0  0  0  0  0  0  0  0  0  0  0  0
    4.6859   -2.6836    0.2765 C   0  0  0  0  0  0  0  0  0  0  0  0
    5.3754   -1.3337    0.1188 C   0  0  0  0  0  0  0  0  0  0  0  0
    4.6270   -0.7043   -1.0304 C   0  0  0  0  0  0  0  0  0  0  0  0
    5.0117    0.2506   -1.6845 O   0  0  0  0  0  0  0  0  0  0  0  0
    1.1169    0.9283   -0.8441 C   0  0  0  0  0  0  0  0  0  0  0  0
    1.9699    2.0502   -0.9097 C   0  0  0  0  0  0  0  0  0  0  0  0
    1.5575    3.2779   -0.3858 C   0  0  0  0  0  0  0  0  0  0  0  0
    0.2978    3.4173    0.1949 C   0  0  0  0  0  0  0  0  0  0  0  0
   -0.1558    4.7606    0.7094 C   0  0  0  0  0  0  0  0  0  0  0  0
   -1.1264    5.4413   -0.2174 C   0  0  0  0  0  0  0  0  0  0  0  0
   -2.3294    5.2407   -0.2773 O   0  0  0  0  0  0  0  0  0  0  0  0
   -0.5380    6.3312   -1.0414 O   0  0  0  0  0  0  0  0  0  0  0  0
   -0.5627    2.3081    0.2703 C   0  0  0  0  0  0  0  0  0  0  0  0
   -0.1279    1.0544   -0.2129 C   0  0  0  0  0  0  0  0  0  0  0  0
   -2.7473   -1.6187   -0.2055 C   0  0  0  0  0  0  0  0  0  0  0  0
   -4.5077   -4.4309    1.3192 H   0  0  0  0  0  0  0  0  0  0  0  0
   -3.3848   -4.5687    0.1557 H   0  0  0  0  0  0  0  0  0  0  0  0
   -5.8378   -2.9615   -0.0206 H   0  0  0  0  0  0  0  0  0  0  0  0
   -4.6591   -3.1285   -1.3070 H   0  0  0  0  0  0  0  0  0  0  0  0
   -5.2692   -1.7386    2.0868 H   0  0  0  0  0  0  0  0  0  0  0  0
   -3.3988    0.8193    3.6047 H   0  0  0  0  0  0  0  0  0  0  0  0
   -1.7713    0.7258    2.0744 H   0  0  0  0  0  0  0  0  0  0  0  0
   -0.2394   -2.0707   -1.1804 H   0  0  0  0  0  0  0  0  0  0  0  0
    2.7660   -0.2721   -2.8137 H   0  0  0  0  0  0  0  0  0  0  0  0
    2.0694   -1.8897   -2.6396 H   0  0  0  0  0  0  0  0  0  0  0  0
    2.6460   -2.0381    0.6412 H   0  0  0  0  0  0  0  0  0  0  0  0
    2.7995   -3.3028   -0.6217 H   0  0  0  0  0  0  0  0  0  0  0  0
    4.7401   -3.0747    1.2962 H   0  0  0  0  0  0  0  0  0  0  0  0
    5.1589   -3.4149   -0.3910 H   0  0  0  0  0  0  0  0  0  0  0  0
    5.2455   -0.7098    1.0084 H   0  0  0  0  0  0  0  0  0  0  0  0
    6.4371   -1.4427   -0.1149 H   0  0  0  0  0  0  0  0  0  0  0  0
    2.9452    1.9706   -1.3855 H   0  0  0  0  0  0  0  0  0  0  0  0
    2.2304    4.1299   -0.4624 H   0  0  0  0  0  0  0  0  0  0  0  0
    0.6997    5.4240    0.8869 H   0  0  0  0  0  0  0  0  0  0  0  0
   -0.6382    4.6466    1.6880 H   0  0  0  0  0  0  0  0  0  0  0  0
   -1.2710    6.6516   -1.6077 H   0  0  0  0  0  0  0  0  0  0  0  0
   -1.5652    2.4372    0.6692 H   0  0  0  0  0  0  0  0  0  0  0  0
   -2.4559   -2.0833   -1.1450 H   0  0  0  0  0  0  0  0  0  0  0  0
  1  2  1  0
  2  3  1  0
  3  4  2  0
  4  5  1  0
  5  6  1  0
  5  7  2  0
  7  8  1  0
  8  9  1  0
  9 10  1  0
 10 11  2  0
 11 12  1  0
 12 13  1  0
 13 14  1  0
 14 15  1  0
 15 16  1  0
 16 17  1  0
 17 18  2  0
 11 19  1  0
 19 20  2  0
 20 21  1  0
 21 22  2  0
 22 23  1  0
 23 24  1  0
 24 25  2  0
 24 26  1  0
 22 27  1  0
 27 28  2  0
  8 29  2  0
 29  3  1  0
 28  9  1  0
 17 13  1  0
 28 19  1  0
  1 30  1  0
  1 31  1  0
  2 32  1  0
  2 33  1  0
  4 34  1  0
  6 35  1  0
  7 36  1  0
 10 37  1  0
 12 38  1  0
 12 39  1  0
 14 40  1  0
 14 41  1  0
 15 42  1  0
 15 43  1  0
 16 44  1  0
 16 45  1  0
 20 46  1  0
 21 47  1  0
 23 48  1  0
 23 49  1  0
 26 50  1  0
 27 51  1  0
 29 52  1  0
M  END
>  <smiles>
NCc1cc(O)cc(-n2cc(CN3CCCC3=O)c3ccc(CC(=O)O)cc32)c1

$$$$
