mol_dcd441279f40
     RDKit          3D

 45 48  0  0  0  0  0  0  0  0999 V2000
   -5.4171    2.3895    1.6928 C   0  0  0  0  0  0  0  0  0  0  0  0
   -4.3438    2.3897    0.6193 C   0  0  0  0  0  0  0  0  0  0  0  0
   -4.4505    1.2182   -0.3171 C   0  0  0  0  0  0  0  0  0  0  0  0
   -3.3470    0.4655   -0.2673 C   0  0  0  0  0  0  0  0  0  0  0  0
   -3.0856   -0.8125   -0.9750 C   0  0  0  0  0  0  0  0  0  0  0  0
   -1.5917   -1.0245   -1.2779 C   0  0  0  0  0  0  0  0  0  0  0  0
   -1.4284   -2.5037   -1.6646 C   0  0  0  0  0  0  0  0  0  0  0  0
   -0.7350   -0.5221   -0.1187 C   0  0  0  0  0  0  0  0  0  0  0  0
   -1.1912    0.4084    0.7554 C   0  0  0  0  0  0  0  0  0  0  0  0
   -0.3398    0.8325    1.8459 C   0  0  0  0  0  0  0  0  0  0  0  0
    0.9254    0.4200    1.9334 C   0  0  0  0  0  0  0  0  0  0  0  0
    1.4879   -0.4122    0.9851 N   0  0  0  0  0  0  0  0  0  0  0  0
    2.7910   -0.8488    1.2114 C   0  0  0  0  0  0  0  0  0  0  0  0
    3.1505   -1.2741    2.3145 O   0  0  0  0  0  0  0  0  0  0  0  0
    3.6920   -0.7232    0.1741 N   0  0  0  0  0  0  0  0  0  0  0  0
    3.5142   -0.0124   -1.0843 C   0  0  0  0  0  0  0  0  0  0  0  0
    4.9351    0.2821   -1.5461 C   0  0  0  0  0  0  0  0  0  0  0  0
    5.7071   -0.9254   -1.0285 C   0  0  0  0  0  0  0  0  0  0  0  0
    5.0616   -1.1814    0.3255 C   0  0  0  0  0  0  0  0  0  0  0  0
    0.7019   -0.9910   -0.0112 C   0  0  0  0  0  0  0  0  0  0  0  0
    1.1204   -1.8293   -0.8076 O   0  0  0  0  0  0  0  0  0  0  0  0
   -2.4401    0.9965    0.6147 N   0  0  0  0  0  0  0  0  0  0  0  0
   -2.9543    2.1566    1.2214 C   0  0  0  0  0  0  0  0  0  0  0  0
   -2.4360    2.8917    2.0499 O   0  0  0  0  0  0  0  0  0  0  0  0
   -5.3881    1.4738    2.2946 H   0  0  0  0  0  0  0  0  0  0  0  0
   -5.2767    3.2326    2.3779 H   0  0  0  0  0  0  0  0  0  0  0  0
   -6.4151    2.4739    1.2501 H   0  0  0  0  0  0  0  0  0  0  0  0
   -4.3388    3.3284    0.0559 H   0  0  0  0  0  0  0  0  0  0  0  0
   -5.3218    1.0100   -0.9221 H   0  0  0  0  0  0  0  0  0  0  0  0
   -3.6626   -0.8602   -1.9072 H   0  0  0  0  0  0  0  0  0  0  0  0
   -3.4512   -1.6275   -0.3346 H   0  0  0  0  0  0  0  0  0  0  0  0
   -1.3301   -0.4195   -2.1573 H   0  0  0  0  0  0  0  0  0  0  0  0
   -0.5130   -2.6725   -2.2389 H   0  0  0  0  0  0  0  0  0  0  0  0
   -2.2509   -2.8349   -2.3094 H   0  0  0  0  0  0  0  0  0  0  0  0
   -1.4128   -3.1507   -0.7808 H   0  0  0  0  0  0  0  0  0  0  0  0
   -0.7302    1.4680    2.6333 H   0  0  0  0  0  0  0  0  0  0  0  0
    1.5648    0.7303    2.7568 H   0  0  0  0  0  0  0  0  0  0  0  0
    2.9104    0.8896   -0.9538 H   0  0  0  0  0  0  0  0  0  0  0  0
    3.0242   -0.6815   -1.7972 H   0  0  0  0  0  0  0  0  0  0  0  0
    5.0097    0.4059   -2.6298 H   0  0  0  0  0  0  0  0  0  0  0  0
    5.3069    1.1953   -1.0661 H   0  0  0  0  0  0  0  0  0  0  0  0
    5.5432   -1.7831   -1.6920 H   0  0  0  0  0  0  0  0  0  0  0  0
    6.7834   -0.7476   -0.9560 H   0  0  0  0  0  0  0  0  0  0  0  0
    5.0856   -2.2354    0.6184 H   0  0  0  0  0  0  0  0  0  0  0  0
    5.5363   -0.5852    1.1131 H   0  0  0  0  0  0  0  0  0  0  0  0
  1  2  1  0
  2  3  1  0
  3  4  2  0
  4  5  1  0
  5  6  1  0
  6  7  1  0
  6  8  1  0
  8  9  2  0
  9 10  1  0
 10 11  2  0
 11 12  1  0
 12 13  1  0
 13 14  2  0
 13 15  1  0
 15 16  1  0
 16 17  1  0
 17 18  1  0
 18 19  1  0
 12 20  1  0
 20 21  2  0
  9 22  1  0
 22 23  1  0
 23 24  2  0
 23  2  1  0
 22  4  1  0
 20  8  1  0
 19 15  1  0
  1 25  1  0
  1 26  1  0
  1 27  1  0
  2 28  1  0
  3 29  1  0
  5 30  1  0
  5 31  1  0
  6 32  1  0
  7 33  1  0
  7 34  1  0
  7 35  1  0
 10 36  1  0
 11 37  1  0
 16 38  1  0
 16 39  1  0
 17 40  1  0
 17 41  1  0
 18 42  1  0
 18 43  1  0
 19 44  1  0
 19 45  1  0
M  END
>  <smiles>
CC1C=C2CC(C)c3c(ccn(C(=O)N4CCCC4)c3=O)N2C1=O

$$$$
