mol_8aad6c5ec7fc
     RDKit          3D

 54 57  0  0  0  0  0  0  0  0999 V2000
    5.5578    3.2360    0.8466 C   0  0  0  0  0  0  0  0  0  0  0  0
    5.4997    1.8065    0.9001 O   0  0  0  0  0  0  0  0  0  0  0  0
    4.6488    1.2540   -0.0093 C   0  0  0  0  0  0  0  0  0  0  0  0
    3.9937    1.8935   -0.8152 O   0  0  0  0  0  0  0  0  0  0  0  0
    4.6262   -0.2331    0.1418 C   0  0  0  0  0  0  0  0  0  0  0  0
    5.6089   -0.9480    0.8464 C   0  0  0  0  0  0  0  0  0  0  0  0
    6.6835   -0.3768    1.4759 O   0  0  0  0  0  0  0  0  0  0  0  0
    5.5474   -2.3394    0.9492 C   0  0  0  0  0  0  0  0  0  0  0  0
    4.5038   -3.0410    0.3559 C   0  0  0  0  0  0  0  0  0  0  0  0
    4.4955   -4.3921    0.5389 O   0  0  0  0  0  0  0  0  0  0  0  0
    3.5303   -2.3732   -0.3817 C   0  0  0  0  0  0  0  0  0  0  0  0
    3.5847   -0.9697   -0.4541 C   0  0  0  0  0  0  0  0  0  0  0  0
    2.6143   -0.3290   -1.1947 O   0  0  0  0  0  0  0  0  0  0  0  0
    1.3242   -0.4205   -0.7204 C   0  0  0  0  0  0  0  0  0  0  0  0
    0.6395    0.7988   -0.6807 C   0  0  0  0  0  0  0  0  0  0  0  0
   -0.6836    0.8651   -0.2231 C   0  0  0  0  0  0  0  0  0  0  0  0
   -1.3319   -0.3017    0.2236 C   0  0  0  0  0  0  0  0  0  0  0  0
   -0.6494   -1.5243    0.1437 C   0  0  0  0  0  0  0  0  0  0  0  0
   -1.2606   -2.7003    0.5009 O   0  0  0  0  0  0  0  0  0  0  0  0
    0.6719   -1.5982   -0.3390 C   0  0  0  0  0  0  0  0  0  0  0  0
    1.1876   -2.8754   -0.3698 O   0  0  0  0  0  0  0  0  0  0  0  0
    2.4016   -3.0491   -1.0996 C   0  0  0  0  0  0  0  0  0  0  0  0
   -2.7199   -0.1933    0.7888 C   0  0  0  0  0  0  0  0  0  0  0  0
   -3.1941   -1.0774    1.4938 O   0  0  0  0  0  0  0  0  0  0  0  0
   -3.4255    0.9800    0.4982 N   0  0  0  0  0  0  0  0  0  0  0  0
   -4.8038    1.1340    0.9604 C   0  0  0  0  0  0  0  0  0  0  0  0
   -5.8479    0.9141   -0.1499 C   0  0  0  0  0  0  0  0  0  0  0  0
   -5.8346   -0.5230   -0.6737 C   0  0  0  0  0  0  0  0  0  0  0  0
   -7.2425    1.2642    0.3728 C   0  0  0  0  0  0  0  0  0  0  0  0
   -2.8798    1.9786   -0.4086 C   0  0  0  0  0  0  0  0  0  0  0  0
   -1.3932    2.1895   -0.1632 C   0  0  0  0  0  0  0  0  0  0  0  0
    5.9283    3.5671   -0.1286 H   0  0  0  0  0  0  0  0  0  0  0  0
    4.5745    3.6674    1.0581 H   0  0  0  0  0  0  0  0  0  0  0  0
    6.2574    3.5735    1.6162 H   0  0  0  0  0  0  0  0  0  0  0  0
    6.5774    0.5942    1.4578 H   0  0  0  0  0  0  0  0  0  0  0  0
    6.3125   -2.8751    1.5064 H   0  0  0  0  0  0  0  0  0  0  0  0
    3.5748   -4.6947    0.6165 H   0  0  0  0  0  0  0  0  0  0  0  0
    1.1557    1.7037   -1.0012 H   0  0  0  0  0  0  0  0  0  0  0  0
   -0.5932   -3.4031    0.4048 H   0  0  0  0  0  0  0  0  0  0  0  0
    2.5788   -4.1263   -1.1835 H   0  0  0  0  0  0  0  0  0  0  0  0
    2.2950   -2.6946   -2.1338 H   0  0  0  0  0  0  0  0  0  0  0  0
   -4.9972    0.4460    1.7916 H   0  0  0  0  0  0  0  0  0  0  0  0
   -4.8925    2.1485    1.3681 H   0  0  0  0  0  0  0  0  0  0  0  0
   -5.6277    1.5832   -0.9910 H   0  0  0  0  0  0  0  0  0  0  0  0
   -4.8753   -0.7654   -1.1416 H   0  0  0  0  0  0  0  0  0  0  0  0
   -6.0126   -1.2420    0.1331 H   0  0  0  0  0  0  0  0  0  0  0  0
   -6.6125   -0.6667   -1.4313 H   0  0  0  0  0  0  0  0  0  0  0  0
   -7.2801    2.3041    0.7139 H   0  0  0  0  0  0  0  0  0  0  0  0
   -7.9946    1.1445   -0.4142 H   0  0  0  0  0  0  0  0  0  0  0  0
   -7.5256    0.6208    1.2129 H   0  0  0  0  0  0  0  0  0  0  0  0
   -3.4111    2.9265   -0.2700 H   0  0  0  0  0  0  0  0  0  0  0  0
   -3.0620    1.6277   -1.4317 H   0  0  0  0  0  0  0  0  0  0  0  0
   -1.2248    2.6326    0.8257 H   0  0  0  0  0  0  0  0  0  0  0  0
   -0.9976    2.8793   -0.9173 H   0  0  0  0  0  0  0  0  0  0  0  0
  1  2  1  0
  2  3  1  0
  3  4  2  0
  3  5  1  0
  5  6  1  0
  6  7  1  0
  6  8  2  0
  8  9  1  0
  9 10  1  0
  9 11  2  0
 11 12  1  0
 12 13  1  0
 13 14  1  0
 14 15  2  0
 15 16  1  0
 16 17  2  0
 17 18  1  0
 18 19  1  0
 18 20  2  0
 20 21  1  0
 21 22  1  0
 17 23  1  0
 23 24  2  0
 23 25  1  0
 25 26  1  0
 26 27  1  0
 27 28  1  0
 27 29  1  0
 25 30  1  0
 30 31  1  0
 12  5  2  0
 20 14  1  0
 22 11  1  0
 31 16  1  0
  1 32  1  0
  1 33  1  0
  1 34  1  0
  7 35  1  0
  8 36  1  0
 10 37  1  0
 15 38  1  0
 19 39  1  0
 22 40  1  0
 22 41  1  0
 26 42  1  0
 26 43  1  0
 27 44  1  0
 28 45  1  0
 28 46  1  0
 28 47  1  0
 29 48  1  0
 29 49  1  0
 29 50  1  0
 30 51  1  0
 30 52  1  0
 31 53  1  0
 31 54  1  0
M  END
>  <smiles>
COC(=O)c1c(O)cc(O)c2c1Oc1cc3c(c(O)c1OC2)C(=O)N(CC(C)C)CC3

$$$$
