mol_28bb76458ea5
     RDKit          3D

 51 52  0  0  0  0  0  0  0  0999 V2000
   -3.5433    3.7355    0.2614 C   0  0  0  0  0  0  0  0  0  0  0  0
   -3.1999    2.5801   -0.6662 C   0  0  0  0  0  0  0  0  0  0  0  0
   -3.0282    1.2873    0.0900 C   0  0  0  0  0  0  0  0  0  0  0  0
   -1.7751    0.9296    0.6022 C   0  0  0  0  0  0  0  0  0  0  0  0
   -1.6027   -0.2661    1.3150 C   0  0  0  0  0  0  0  0  0  0  0  0
   -0.2367   -0.6535    1.8131 C   0  0  0  0  0  0  0  0  0  0  0  0
    0.5845   -1.1309    0.7279 N   0  0  0  0  0  0  0  0  0  0  0  0
    1.8981   -1.4619    0.9250 C   0  0  0  0  0  0  0  0  0  0  0  0
    2.4475   -1.4578    2.0223 O   0  0  0  0  0  0  0  0  0  0  0  0
    2.6381   -1.8533   -0.3356 C   0  0  0  0  0  0  0  0  0  0  0  0
    2.8264   -0.7110   -1.3419 C   0  0  0  0  0  0  0  0  0  0  0  0
    4.1189   -0.8489   -2.1511 C   0  0  0  0  0  0  0  0  0  0  0  0
    5.3807   -0.5350   -1.3434 C   0  0  0  0  0  0  0  0  0  0  0  0
    5.1113    0.2283   -0.0493 C   0  0  0  0  0  0  0  0  0  0  0  0
    3.9656    1.1147   -0.1541 N   0  0  0  0  0  0  0  0  0  0  0  0
    4.0122    2.3744    0.5635 C   0  0  0  0  0  0  0  0  0  0  0  0
    2.7797    0.6824   -0.7237 C   0  0  0  0  0  0  0  0  0  0  0  0
    1.7424    1.3425   -0.7378 O   0  0  0  0  0  0  0  0  0  0  0  0
   -2.7034   -1.1109    1.5074 C   0  0  0  0  0  0  0  0  0  0  0  0
   -3.9693   -0.7635    1.0147 C   0  0  0  0  0  0  0  0  0  0  0  0
   -5.1479   -1.6849    1.2203 C   0  0  0  0  0  0  0  0  0  0  0  0
   -5.2419   -2.7955    0.2028 C   0  0  0  0  0  0  0  0  0  0  0  0
   -4.4450   -3.0988   -0.6686 O   0  0  0  0  0  0  0  0  0  0  0  0
   -6.3766   -3.5147    0.3529 O   0  0  0  0  0  0  0  0  0  0  0  0
   -4.1207    0.4371    0.3058 C   0  0  0  0  0  0  0  0  0  0  0  0
   -2.7542    3.8973    1.0036 H   0  0  0  0  0  0  0  0  0  0  0  0
   -3.6629    4.6593   -0.3133 H   0  0  0  0  0  0  0  0  0  0  0  0
   -4.4780    3.5476    0.8006 H   0  0  0  0  0  0  0  0  0  0  0  0
   -2.2808    2.8090   -1.2195 H   0  0  0  0  0  0  0  0  0  0  0  0
   -3.9869    2.4645   -1.4213 H   0  0  0  0  0  0  0  0  0  0  0  0
   -0.9161    1.5803    0.4339 H   0  0  0  0  0  0  0  0  0  0  0  0
   -0.2976   -1.4404    2.5738 H   0  0  0  0  0  0  0  0  0  0  0  0
    0.2566    0.2070    2.2808 H   0  0  0  0  0  0  0  0  0  0  0  0
    0.2018   -1.0854   -0.2083 H   0  0  0  0  0  0  0  0  0  0  0  0
    2.0931   -2.6764   -0.8152 H   0  0  0  0  0  0  0  0  0  0  0  0
    3.6010   -2.2788   -0.0293 H   0  0  0  0  0  0  0  0  0  0  0  0
    1.9899   -0.7559   -2.0533 H   0  0  0  0  0  0  0  0  0  0  0  0
    4.0742   -0.1455   -2.9939 H   0  0  0  0  0  0  0  0  0  0  0  0
    4.1962   -1.8484   -2.5954 H   0  0  0  0  0  0  0  0  0  0  0  0
    6.0576    0.0513   -1.9777 H   0  0  0  0  0  0  0  0  0  0  0  0
    5.9192   -1.4604   -1.1066 H   0  0  0  0  0  0  0  0  0  0  0  0
    4.9145   -0.4663    0.7746 H   0  0  0  0  0  0  0  0  0  0  0  0
    6.0009    0.8082    0.2217 H   0  0  0  0  0  0  0  0  0  0  0  0
    4.8857    2.9413    0.2292 H   0  0  0  0  0  0  0  0  0  0  0  0
    3.1136    2.9725    0.3915 H   0  0  0  0  0  0  0  0  0  0  0  0
    4.0983    2.1635    1.6335 H   0  0  0  0  0  0  0  0  0  0  0  0
   -2.5700   -2.0519    2.0383 H   0  0  0  0  0  0  0  0  0  0  0  0
   -5.0849   -2.1347    2.2182 H   0  0  0  0  0  0  0  0  0  0  0  0
   -6.0755   -1.1012    1.1810 H   0  0  0  0  0  0  0  0  0  0  0  0
   -6.3134   -4.1950   -0.3505 H   0  0  0  0  0  0  0  0  0  0  0  0
   -5.0967    0.7133   -0.0890 H   0  0  0  0  0  0  0  0  0  0  0  0
  1  2  1  0
  2  3  1  0
  3  4  1  0
  4  5  2  0
  5  6  1  0
  6  7  1  0
  7  8  1  0
  8  9  2  0
  8 10  1  0
 10 11  1  0
 11 12  1  0
 12 13  1  0
 13 14  1  0
 14 15  1  0
 15 16  1  0
 15 17  1  0
 17 18  2  0
  5 19  1  0
 19 20  2  0
 20 21  1  0
 21 22  1  0
 22 23  2  0
 22 24  1  0
 20 25  1  0
 25  3  2  0
 17 11  1  0
  1 26  1  0
  1 27  1  0
  1 28  1  0
  2 29  1  0
  2 30  1  0
  4 31  1  0
  6 32  1  0
  6 33  1  0
  7 34  1  0
 10 35  1  0
 10 36  1  0
 11 37  1  0
 12 38  1  0
 12 39  1  0
 13 40  1  0
 13 41  1  0
 14 42  1  0
 14 43  1  0
 16 44  1  0
 16 45  1  0
 16 46  1  0
 19 47  1  0
 21 48  1  0
 21 49  1  0
 24 50  1  0
 25 51  1  0
M  END
>  <smiles>
CCc1cc(CNC(=O)CC2CCCN(C)C2=O)cc(CC(=O)O)c1

$$$$
