mol_bb8f23d01596
     RDKit          3D

 62 64  0  0  0  0  0  0  0  0999 V2000
    2.9744   -2.9135    2.0867 C   0  0  0  0  0  0  0  0  0  0  0  0
    3.6811   -1.5824    2.0380 C   0  0  0  0  0  0  0  0  0  0  0  0
    4.5008   -1.2875    2.9075 O   0  0  0  0  0  0  0  0  0  0  0  0
    3.3330   -0.6977    1.0292 N   0  0  0  0  0  0  0  0  0  0  0  0
    2.2303   -0.8993    0.0869 C   0  0  0  0  0  0  0  0  0  0  0  0
    2.6604   -1.6115   -1.1963 C   0  0  0  0  0  0  0  0  0  0  0  0
    1.5789   -1.6919   -2.2879 C   0  0  0  0  0  0  0  0  0  0  0  0
    0.2211   -2.2351   -1.8215 C   0  0  0  0  0  0  0  0  0  0  0  0
   -0.6451   -2.7578   -2.9746 C   0  0  0  0  0  0  0  0  0  0  0  0
   -2.0722   -2.5779   -2.4700 C   0  0  0  0  0  0  0  0  0  0  0  0
   -2.0178   -1.1879   -1.8458 C   0  0  0  0  0  0  0  0  0  0  0  0
   -3.2008   -0.8663   -0.9228 C   0  0  0  0  0  0  0  0  0  0  0  0
   -3.2337    0.6081   -0.5603 C   0  0  0  0  0  0  0  0  0  0  0  0
   -2.4252    1.0615    0.5037 C   0  0  0  0  0  0  0  0  0  0  0  0
   -2.3163    2.4194    0.8000 C   0  0  0  0  0  0  0  0  0  0  0  0
   -3.0865    3.3331    0.0873 C   0  0  0  0  0  0  0  0  0  0  0  0
   -3.9178    2.9023   -0.9474 C   0  0  0  0  0  0  0  0  0  0  0  0
   -3.9863    1.5453   -1.2977 C   0  0  0  0  0  0  0  0  0  0  0  0
   -4.8710    1.1361   -2.4434 C   0  0  0  0  0  0  0  0  0  0  0  0
   -1.5004    2.9643    1.7521 O   0  0  0  0  0  0  0  0  0  0  0  0
   -0.3928    2.1678    2.1851 C   0  0  0  0  0  0  0  0  0  0  0  0
    0.6592    3.1086    2.7665 C   0  0  0  0  0  0  0  0  0  0  0  0
    1.7982    2.3798    3.4733 C   0  0  0  0  0  0  0  0  0  0  0  0
    2.4899    1.4112    2.6505 N   0  0  0  0  0  0  0  0  0  0  0  0
    3.3308    1.7605    1.6155 C   0  0  0  0  0  0  0  0  0  0  0  0
    3.5658    2.9278    1.3124 O   0  0  0  0  0  0  0  0  0  0  0  0
    4.0529    0.5843    0.9340 C   0  0  0  0  0  0  0  0  0  0  0  0
   -0.6600   -1.1781   -1.1300 C   0  0  0  0  0  0  0  0  0  0  0  0
    3.0197   -3.4184    1.1209 H   0  0  0  0  0  0  0  0  0  0  0  0
    3.4668   -3.5559    2.8233 H   0  0  0  0  0  0  0  0  0  0  0  0
    1.9343   -2.7723    2.3912 H   0  0  0  0  0  0  0  0  0  0  0  0
    1.4544   -1.4776    0.5934 H   0  0  0  0  0  0  0  0  0  0  0  0
    1.8056    0.0829   -0.1465 H   0  0  0  0  0  0  0  0  0  0  0  0
    2.9917   -2.6286   -0.9586 H   0  0  0  0  0  0  0  0  0  0  0  0
    3.5370   -1.1063   -1.6209 H   0  0  0  0  0  0  0  0  0  0  0  0
    1.9698   -2.3380   -3.0845 H   0  0  0  0  0  0  0  0  0  0  0  0
    1.4473   -0.6997   -2.7378 H   0  0  0  0  0  0  0  0  0  0  0  0
    0.3895   -3.0661   -1.1232 H   0  0  0  0  0  0  0  0  0  0  0  0
   -0.4235   -3.8028   -3.2123 H   0  0  0  0  0  0  0  0  0  0  0  0
   -0.4899   -2.1634   -3.8835 H   0  0  0  0  0  0  0  0  0  0  0  0
   -2.3156   -3.3411   -1.7212 H   0  0  0  0  0  0  0  0  0  0  0  0
   -2.8045   -2.6408   -3.2804 H   0  0  0  0  0  0  0  0  0  0  0  0
   -1.9818   -0.4528   -2.6628 H   0  0  0  0  0  0  0  0  0  0  0  0
   -3.1529   -1.4667   -0.0050 H   0  0  0  0  0  0  0  0  0  0  0  0
   -4.1414   -1.1564   -1.4043 H   0  0  0  0  0  0  0  0  0  0  0  0
   -1.8690    0.3321    1.0833 H   0  0  0  0  0  0  0  0  0  0  0  0
   -3.0261    4.3920    0.3254 H   0  0  0  0  0  0  0  0  0  0  0  0
   -4.4991    3.6428   -1.4927 H   0  0  0  0  0  0  0  0  0  0  0  0
   -5.7035    0.5262   -2.0787 H   0  0  0  0  0  0  0  0  0  0  0  0
   -5.2962    2.0067   -2.9542 H   0  0  0  0  0  0  0  0  0  0  0  0
   -4.3006    0.5722   -3.1881 H   0  0  0  0  0  0  0  0  0  0  0  0
    0.0503    1.6164    1.3467 H   0  0  0  0  0  0  0  0  0  0  0  0
   -0.7413    1.4634    2.9488 H   0  0  0  0  0  0  0  0  0  0  0  0
    0.1819    3.7969    3.4754 H   0  0  0  0  0  0  0  0  0  0  0  0
    1.0497    3.7419    1.9604 H   0  0  0  0  0  0  0  0  0  0  0  0
    1.4131    1.8399    4.3451 H   0  0  0  0  0  0  0  0  0  0  0  0
    2.5341    3.1089    3.8304 H   0  0  0  0  0  0  0  0  0  0  0  0
    2.5168    0.4445    2.9522 H   0  0  0  0  0  0  0  0  0  0  0  0
    5.0413    0.4967    1.3974 H   0  0  0  0  0  0  0  0  0  0  0  0
    4.1919    0.8241   -0.1256 H   0  0  0  0  0  0  0  0  0  0  0  0
   -0.2290   -0.1729   -1.1704 H   0  0  0  0  0  0  0  0  0  0  0  0
   -0.7717   -1.4510   -0.0743 H   0  0  0  0  0  0  0  0  0  0  0  0
  1  2  1  0
  2  3  2  0
  2  4  1  0
  4  5  1  0
  5  6  1  0
  6  7  1  0
  7  8  1  0
  8  9  1  0
  9 10  1  0
 10 11  1  0
 11 12  1  0
 12 13  1  0
 13 14  1  0
 14 15  2  0
 15 16  1  0
 16 17  2  0
 17 18  1  0
 18 19  1  0
 15 20  1  0
 20 21  1  0
 21 22  1  0
 22 23  1  0
 23 24  1  0
 24 25  1  0
 25 26  2  0
 25 27  1  0
 11 28  1  0
 27  4  1  0
 28  8  1  0
 18 13  2  0
  1 29  1  0
  1 30  1  0
  1 31  1  0
  5 32  1  0
  5 33  1  0
  6 34  1  0
  6 35  1  0
  7 36  1  0
  7 37  1  0
  8 38  1  0
  9 39  1  0
  9 40  1  0
 10 41  1  0
 10 42  1  0
 11 43  1  0
 12 44  1  0
 12 45  1  0
 14 46  1  0
 16 47  1  0
 17 48  1  0
 19 49  1  0
 19 50  1  0
 19 51  1  0
 21 52  1  0
 21 53  1  0
 22 54  1  0
 22 55  1  0
 23 56  1  0
 23 57  1  0
 24 58  1  0
 27 59  1  0
 27 60  1  0
 28 61  1  0
 28 62  1  0
M  END
>  <smiles>
CC(=O)N1CCCC2CCC(Cc3cc(ccc3C)OCCCNC(=O)C1)C2

$$$$
