mol_c5e597cc17a2
     RDKit          3D

 48 52  0  0  0  0  0  0  0  0999 V2000
    6.0176    1.5250    1.1776 O   0  0  0  0  0  0  0  0  0  0  0  0
    5.7905    0.4677    0.6146 C   0  0  0  0  0  0  0  0  0  0  0  0
    6.7611   -0.2011   -0.0300 O   0  0  0  0  0  0  0  0  0  0  0  0
    4.4523   -0.2005    0.5128 C   0  0  0  0  0  0  0  0  0  0  0  0
    3.7235    0.2138   -0.7672 C   0  0  0  0  0  0  0  0  0  0  0  0
    3.2567    1.6671   -0.8038 C   0  0  0  0  0  0  0  0  0  0  0  0
    2.1765    1.9272    0.2307 C   0  0  0  0  0  0  0  0  0  0  0  0
    1.0964    0.8954    0.1403 C   0  0  0  0  0  0  0  0  0  0  0  0
   -0.2204    0.9635    0.5495 C   0  0  0  0  0  0  0  0  0  0  0  0
   -0.8414   -0.2535    0.1803 C   0  0  0  0  0  0  0  0  0  0  0  0
    0.1432   -1.0953   -0.3262 C   0  0  0  0  0  0  0  0  0  0  0  0
    1.3336   -0.3577   -0.4297 N   0  0  0  0  0  0  0  0  0  0  0  0
    2.5765   -0.7449   -0.9981 C   0  0  0  0  0  0  0  0  0  0  0  0
    2.7106   -1.8136   -1.5824 O   0  0  0  0  0  0  0  0  0  0  0  0
    0.0980   -2.4813   -0.6529 C   0  0  0  0  0  0  0  0  0  0  0  0
   -0.9959   -3.2597   -0.6252 C   0  0  0  0  0  0  0  0  0  0  0  0
   -2.3123   -2.9905   -0.4096 O   0  0  0  0  0  0  0  0  0  0  0  0
   -2.7597   -1.6573   -0.6458 C   0  0  0  0  0  0  0  0  0  0  0  0
   -4.2865   -1.6191   -0.4567 C   0  0  0  0  0  0  0  0  0  0  0  0
   -4.6893   -2.4825    0.6146 O   0  0  0  0  0  0  0  0  0  0  0  0
   -4.6308   -0.1836   -0.0572 C   0  0  0  0  0  0  0  0  0  0  0  0
   -3.2717    0.5261    0.1067 C   0  0  0  0  0  0  0  0  0  0  0  0
   -3.0251    1.1646   -1.1618 O   0  0  0  0  0  0  0  0  0  0  0  0
   -3.3229    1.5860    1.2123 C   0  0  0  0  0  0  0  0  0  0  0  0
   -2.0624    2.3436    1.5299 C   0  0  0  0  0  0  0  0  0  0  0  0
   -0.7800    2.0866    1.2305 C   0  0  0  0  0  0  0  0  0  0  0  0
   -2.2780   -0.6232    0.3736 C   0  0  0  0  0  0  0  0  0  0  0  0
    7.5701    0.3356    0.1086 H   0  0  0  0  0  0  0  0  0  0  0  0
    3.8798    0.0283    1.4181 H   0  0  0  0  0  0  0  0  0  0  0  0
    4.6120   -1.2863    0.5417 H   0  0  0  0  0  0  0  0  0  0  0  0
    4.4068    0.0815   -1.6180 H   0  0  0  0  0  0  0  0  0  0  0  0
    4.0944    2.3565   -0.6526 H   0  0  0  0  0  0  0  0  0  0  0  0
    2.8523    1.8830   -1.8025 H   0  0  0  0  0  0  0  0  0  0  0  0
    1.7634    2.9277    0.0575 H   0  0  0  0  0  0  0  0  0  0  0  0
    2.5969    1.9261    1.2426 H   0  0  0  0  0  0  0  0  0  0  0  0
    1.0238   -3.0164   -0.8466 H   0  0  0  0  0  0  0  0  0  0  0  0
   -0.8944   -4.3323   -0.7697 H   0  0  0  0  0  0  0  0  0  0  0  0
   -2.5191   -1.3633   -1.6781 H   0  0  0  0  0  0  0  0  0  0  0  0
   -4.8171   -1.9455   -1.3562 H   0  0  0  0  0  0  0  0  0  0  0  0
   -4.1539   -3.2944    0.5136 H   0  0  0  0  0  0  0  0  0  0  0  0
   -5.2123   -0.1698    0.8720 H   0  0  0  0  0  0  0  0  0  0  0  0
   -5.2318    0.2926   -0.8407 H   0  0  0  0  0  0  0  0  0  0  0  0
   -2.1725    1.6318   -1.0904 H   0  0  0  0  0  0  0  0  0  0  0  0
   -4.0696    2.3378    0.9219 H   0  0  0  0  0  0  0  0  0  0  0  0
   -3.6781    1.1348    2.1474 H   0  0  0  0  0  0  0  0  0  0  0  0
   -2.2484    3.2559    2.0993 H   0  0  0  0  0  0  0  0  0  0  0  0
   -0.0672    2.8308    1.5873 H   0  0  0  0  0  0  0  0  0  0  0  0
   -2.3954   -1.0173    1.3931 H   0  0  0  0  0  0  0  0  0  0  0  0
  1  2  2  0
  2  3  1  0
  2  4  1  0
  4  5  1  0
  5  6  1  0
  6  7  1  0
  7  8  1  0
  8  9  2  0
  9 10  1  0
 10 11  2  0
 11 12  1  0
 12 13  1  0
 13 14  2  0
 11 15  1  0
 15 16  2  0
 16 17  1  0
 17 18  1  0
 18 19  1  0
 19 20  1  0
 19 21  1  0
 21 22  1  0
 22 23  1  0
 22 24  1  0
 24 25  1  0
 25 26  2  0
 22 27  1  0
 13  5  1  0
 27 18  1  0
 12  8  1  0
 26  9  1  0
 27 10  1  0
  3 28  1  0
  4 29  1  0
  4 30  1  0
  5 31  1  0
  6 32  1  0
  6 33  1  0
  7 34  1  0
  7 35  1  0
 15 36  1  0
 16 37  1  0
 18 38  1  0
 19 39  1  0
 20 40  1  0
 21 41  1  0
 21 42  1  0
 23 43  1  0
 24 44  1  0
 24 45  1  0
 25 46  1  0
 26 47  1  0
 27 48  1  0
M  END
>  <smiles>
O=C(O)CC1CCc2c3c4c(n2C1=O)C=COC1C(O)CC(O)(CC=C3)C41

$$$$
