mol_db93484030d6
     RDKit          3D

 49 50  0  0  0  0  0  0  0  0999 V2000
    7.6688   -1.5961    0.9994 C   0  0  0  0  0  0  0  0  0  0  0  0
    7.1719   -0.1586    0.9461 C   0  0  0  0  0  0  0  0  0  0  0  0
    6.3696    0.1322   -0.3195 C   0  0  0  0  0  0  0  0  0  0  0  0
    5.2191   -0.7207   -0.4114 O   0  0  0  0  0  0  0  0  0  0  0  0
    4.1031   -0.2841    0.2358 C   0  0  0  0  0  0  0  0  0  0  0  0
    4.0276    0.7328    0.9122 O   0  0  0  0  0  0  0  0  0  0  0  0
    2.9841   -1.2792    0.0459 C   0  0  0  0  0  0  0  0  0  0  0  0
    1.6366   -0.6619    0.3962 C   0  0  0  0  0  0  0  0  0  0  0  0
    1.2139    0.3753   -0.6238 C   0  0  0  0  0  0  0  0  0  0  0  0
    1.7346    0.4947   -1.7279 O   0  0  0  0  0  0  0  0  0  0  0  0
    0.1508    1.1473   -0.2109 N   0  0  0  0  0  0  0  0  0  0  0  0
   -0.4454    2.1544   -1.0718 C   0  0  0  0  0  0  0  0  0  0  0  0
   -1.6354    1.6498   -1.8858 C   0  0  0  0  0  0  0  0  0  0  0  0
   -1.2968    0.4133   -2.7152 C   0  0  0  0  0  0  0  0  0  0  0  0
   -2.0244   -0.6356   -2.4706 N   0  0  0  0  0  0  0  0  0  0  0  0
   -2.9149   -0.2409   -1.4641 C   0  0  0  0  0  0  0  0  0  0  0  0
   -3.8141   -1.0765   -0.9450 N   0  0  0  0  0  0  0  0  0  0  0  0
   -4.6180   -0.5619    0.0252 C   0  0  0  0  0  0  0  0  0  0  0  0
   -5.6409   -1.5275    0.5737 C   0  0  0  0  0  0  0  0  0  0  0  0
   -6.9163   -1.5240   -0.2552 C   0  0  0  0  0  0  0  0  0  0  0  0
   -4.5319    0.7785    0.4710 C   0  0  0  0  0  0  0  0  0  0  0  0
   -5.4307    1.3222    1.5444 C   0  0  0  0  0  0  0  0  0  0  0  0
   -3.5603    1.6139   -0.0997 C   0  0  0  0  0  0  0  0  0  0  0  0
   -2.7501    1.0786   -1.0765 C   0  0  0  0  0  0  0  0  0  0  0  0
    8.2673   -1.7549    1.9021 H   0  0  0  0  0  0  0  0  0  0  0  0
    8.2957   -1.8262    0.1320 H   0  0  0  0  0  0  0  0  0  0  0  0
    6.8353   -2.3051    1.0199 H   0  0  0  0  0  0  0  0  0  0  0  0
    6.5543    0.0265    1.8320 H   0  0  0  0  0  0  0  0  0  0  0  0
    8.0290    0.5222    0.9939 H   0  0  0  0  0  0  0  0  0  0  0  0
    6.9836   -0.0621   -1.2059 H   0  0  0  0  0  0  0  0  0  0  0  0
    6.0773    1.1881   -0.3644 H   0  0  0  0  0  0  0  0  0  0  0  0
    3.1823   -2.1309    0.7055 H   0  0  0  0  0  0  0  0  0  0  0  0
    2.9873   -1.6318   -0.9916 H   0  0  0  0  0  0  0  0  0  0  0  0
    1.6580   -0.2053    1.3925 H   0  0  0  0  0  0  0  0  0  0  0  0
    0.8682   -1.4439    0.4041 H   0  0  0  0  0  0  0  0  0  0  0  0
   -0.2572    0.9784    0.7013 H   0  0  0  0  0  0  0  0  0  0  0  0
    0.3251    2.5420   -1.7480 H   0  0  0  0  0  0  0  0  0  0  0  0
   -0.7561    2.9767   -0.4177 H   0  0  0  0  0  0  0  0  0  0  0  0
   -2.0037    2.4291   -2.5614 H   0  0  0  0  0  0  0  0  0  0  0  0
   -0.4970    0.4440   -3.4697 H   0  0  0  0  0  0  0  0  0  0  0  0
   -5.8670   -1.3074    1.6221 H   0  0  0  0  0  0  0  0  0  0  0  0
   -5.2118   -2.5373    0.5658 H   0  0  0  0  0  0  0  0  0  0  0  0
   -7.3886   -0.5364   -0.2607 H   0  0  0  0  0  0  0  0  0  0  0  0
   -7.6349   -2.2414    0.1537 H   0  0  0  0  0  0  0  0  0  0  0  0
   -6.7135   -1.8030   -1.2948 H   0  0  0  0  0  0  0  0  0  0  0  0
   -5.2116    0.8392    2.5017 H   0  0  0  0  0  0  0  0  0  0  0  0
   -6.4821    1.1647    1.2860 H   0  0  0  0  0  0  0  0  0  0  0  0
   -5.2893    2.4005    1.6761 H   0  0  0  0  0  0  0  0  0  0  0  0
   -3.4516    2.6479    0.2111 H   0  0  0  0  0  0  0  0  0  0  0  0
  1  2  1  0
  2  3  1  0
  3  4  1  0
  4  5  1  0
  5  6  2  0
  5  7  1  0
  7  8  1  0
  8  9  1  0
  9 10  2  0
  9 11  1  0
 11 12  1  0
 12 13  1  0
 13 14  1  0
 14 15  2  0
 15 16  1  0
 16 17  2  0
 17 18  1  0
 18 19  1  0
 19 20  1  0
 18 21  2  0
 21 22  1  0
 21 23  1  0
 23 24  2  0
 24 13  1  0
 24 16  1  0
  1 25  1  0
  1 26  1  0
  1 27  1  0
  2 28  1  0
  2 29  1  0
  3 30  1  0
  3 31  1  0
  7 32  1  0
  7 33  1  0
  8 34  1  0
  8 35  1  0
 11 36  1  0
 12 37  1  0
 12 38  1  0
 13 39  1  0
 14 40  1  0
 19 41  1  0
 19 42  1  0
 20 43  1  0
 20 44  1  0
 20 45  1  0
 22 46  1  0
 22 47  1  0
 22 48  1  0
 23 49  1  0
M  END
>  <smiles>
CCCOC(=O)CCC(=O)NCC1C=Nc2nc(CC)c(C)cc21

$$$$
