mol_7f4e1e5cb3d5
     RDKit          3D

 50 54  0  0  0  0  0  0  0  0999 V2000
   -6.2286   -1.9173   -0.5575 C   0  0  0  0  0  0  0  0  0  0  0  0
   -5.8136   -0.5119   -0.1500 C   0  0  0  0  0  0  0  0  0  0  0  0
   -4.3512   -0.4421    0.2080 C   0  0  0  0  0  0  0  0  0  0  0  0
   -3.3936   -0.1673   -0.7751 C   0  0  0  0  0  0  0  0  0  0  0  0
   -2.0260   -0.1061   -0.4579 C   0  0  0  0  0  0  0  0  0  0  0  0
   -1.6142   -0.3515    0.8529 C   0  0  0  0  0  0  0  0  0  0  0  0
   -0.2589   -0.3215    1.1770 C   0  0  0  0  0  0  0  0  0  0  0  0
    0.1686   -0.5353    2.4843 C   0  0  0  0  0  0  0  0  0  0  0  0
   -0.7648   -0.7782    3.4888 C   0  0  0  0  0  0  0  0  0  0  0  0
   -2.1250   -0.8349    3.1778 C   0  0  0  0  0  0  0  0  0  0  0  0
   -2.5661   -0.6246    1.8616 C   0  0  0  0  0  0  0  0  0  0  0  0
   -3.9276   -0.6712    1.5236 C   0  0  0  0  0  0  0  0  0  0  0  0
    1.4762   -0.4746    2.8667 O   0  0  0  0  0  0  0  0  0  0  0  0
    2.4075   -0.7208    1.8025 C   0  0  0  0  0  0  0  0  0  0  0  0
    2.0787   -0.0487    0.5504 N   0  0  0  0  0  0  0  0  0  0  0  0
    3.1664    0.3548   -0.2605 C   0  0  0  0  0  0  0  0  0  0  0  0
    3.0776    1.5083   -1.0593 C   0  0  0  0  0  0  0  0  0  0  0  0
    4.1399    1.9351   -1.8624 C   0  0  0  0  0  0  0  0  0  0  0  0
    5.3278    1.2113   -1.8876 C   0  0  0  0  0  0  0  0  0  0  0  0
    5.4481    0.0581   -1.1095 C   0  0  0  0  0  0  0  0  0  0  0  0
    6.6862   -0.7569   -1.0983 C   0  0  0  0  0  0  0  0  0  0  0  0
    6.8738   -1.7522   -0.4227 O   0  0  0  0  0  0  0  0  0  0  0  0
    7.6322   -0.2872   -1.9297 O   0  0  0  0  0  0  0  0  0  0  0  0
    4.3748   -0.3619   -0.3056 C   0  0  0  0  0  0  0  0  0  0  0  0
    0.7499   -0.0223    0.1327 C   0  0  0  0  0  0  0  0  0  0  0  0
    0.4047    0.2230   -1.0886 N   0  0  0  0  0  0  0  0  0  0  0  0
   -0.9892    0.1977   -1.5144 C   0  0  0  0  0  0  0  0  0  0  0  0
   -1.2726    1.4102   -2.2853 N   0  0  0  0  0  0  0  0  0  0  0  0
   -1.2632    2.6210   -1.4725 C   0  0  0  0  0  0  0  0  0  0  0  0
   -5.6643   -2.2606   -1.4312 H   0  0  0  0  0  0  0  0  0  0  0  0
   -6.0587   -2.6328    0.2542 H   0  0  0  0  0  0  0  0  0  0  0  0
   -7.2931   -1.9389   -0.8114 H   0  0  0  0  0  0  0  0  0  0  0  0
   -6.4187   -0.1790    0.7021 H   0  0  0  0  0  0  0  0  0  0  0  0
   -6.0280    0.1893   -0.9657 H   0  0  0  0  0  0  0  0  0  0  0  0
   -3.7057    0.0166   -1.8027 H   0  0  0  0  0  0  0  0  0  0  0  0
   -0.4364   -0.9290    4.5140 H   0  0  0  0  0  0  0  0  0  0  0  0
   -2.8399   -1.0359    3.9730 H   0  0  0  0  0  0  0  0  0  0  0  0
   -4.6686   -0.8867    2.2912 H   0  0  0  0  0  0  0  0  0  0  0  0
    3.3736   -0.3817    2.1945 H   0  0  0  0  0  0  0  0  0  0  0  0
    2.4755   -1.8057    1.6478 H   0  0  0  0  0  0  0  0  0  0  0  0
    2.1648    2.1009   -1.0542 H   0  0  0  0  0  0  0  0  0  0  0  0
    4.0329    2.8324   -2.4667 H   0  0  0  0  0  0  0  0  0  0  0  0
    6.1468    1.5504   -2.5166 H   0  0  0  0  0  0  0  0  0  0  0  0
    8.3760   -0.9165   -1.8233 H   0  0  0  0  0  0  0  0  0  0  0  0
    4.4924   -1.2814    0.2633 H   0  0  0  0  0  0  0  0  0  0  0  0
   -1.0606   -0.6358   -2.2261 H   0  0  0  0  0  0  0  0  0  0  0  0
   -0.5029    1.4757   -2.9498 H   0  0  0  0  0  0  0  0  0  0  0  0
   -0.3101    2.7703   -0.9559 H   0  0  0  0  0  0  0  0  0  0  0  0
   -1.4191    3.4865   -2.1248 H   0  0  0  0  0  0  0  0  0  0  0  0
   -2.0734    2.6287   -0.7372 H   0  0  0  0  0  0  0  0  0  0  0  0
  1  2  1  0
  2  3  1  0
  3  4  1  0
  4  5  2  0
  5  6  1  0
  6  7  2  0
  7  8  1  0
  8  9  2  0
  9 10  1  0
 10 11  2  0
 11 12  1  0
  8 13  1  0
 13 14  1  0
 14 15  1  0
 15 16  1  0
 16 17  2  0
 17 18  1  0
 18 19  2  0
 19 20  1  0
 20 21  1  0
 21 22  2  0
 21 23  1  0
 20 24  2  0
 15 25  1  0
 25 26  2  0
 26 27  1  0
 27 28  1  0
 28 29  1  0
 12  3  2  0
 24 16  1  0
 27  5  1  0
 11  6  1  0
 25  7  1  0
  1 30  1  0
  1 31  1  0
  1 32  1  0
  2 33  1  0
  2 34  1  0
  4 35  1  0
  9 36  1  0
 10 37  1  0
 12 38  1  0
 14 39  1  0
 14 40  1  0
 17 41  1  0
 18 42  1  0
 19 43  1  0
 23 44  1  0
 24 45  1  0
 27 46  1  0
 28 47  1  0
 29 48  1  0
 29 49  1  0
 29 50  1  0
M  END
>  <smiles>
CCc1cc2c3c4c(ccc3c1)OCN(c1cccc(C(=O)O)c1)C4=NC2NC

$$$$
