mol_0ca409aafc2d
     RDKit          3D

 48 50  0  0  0  0  0  0  0  0999 V2000
    6.0087    1.5133    1.8265 C   0  0  0  0  0  0  0  0  0  0  0  0
    5.0974    0.6211    2.6576 C   0  0  0  0  0  0  0  0  0  0  0  0
    3.7136    0.4590    2.0315 C   0  0  0  0  0  0  0  0  0  0  0  0
    3.8521   -0.2017    0.7752 O   0  0  0  0  0  0  0  0  0  0  0  0
    2.7194   -0.4193    0.0322 C   0  0  0  0  0  0  0  0  0  0  0  0
    1.4270   -0.0850    0.4469 C   0  0  0  0  0  0  0  0  0  0  0  0
    0.3359   -0.3514   -0.3873 C   0  0  0  0  0  0  0  0  0  0  0  0
   -1.0391   -0.0097    0.0261 C   0  0  0  0  0  0  0  0  0  0  0  0
   -1.2016    0.4980    1.1336 O   0  0  0  0  0  0  0  0  0  0  0  0
   -2.0682   -0.2957   -0.8752 N   0  0  0  0  0  0  0  0  0  0  0  0
   -3.4559    0.0407   -0.5074 C   0  0  0  0  0  0  0  0  0  0  0  0
   -3.6717    1.5458   -0.2859 C   0  0  0  0  0  0  0  0  0  0  0  0
   -5.1541    1.8810   -0.0976 C   0  0  0  0  0  0  0  0  0  0  0  0
   -5.9520    0.7733    0.5940 C   0  0  0  0  0  0  0  0  0  0  0  0
   -5.0740   -0.1007    1.4795 C   0  0  0  0  0  0  0  0  0  0  0  0
   -3.9750   -0.8016    0.6770 C   0  0  0  0  0  0  0  0  0  0  0  0
   -1.8573   -0.9049   -2.1053 C   0  0  0  0  0  0  0  0  0  0  0  0
   -2.7442   -1.1897   -2.9091 O   0  0  0  0  0  0  0  0  0  0  0  0
   -0.5675   -1.2063   -2.4360 N   0  0  0  0  0  0  0  0  0  0  0  0
    0.5295   -0.9473   -1.6230 C   0  0  0  0  0  0  0  0  0  0  0  0
    1.8128   -1.2892   -2.0514 C   0  0  0  0  0  0  0  0  0  0  0  0
    2.9142   -1.0278   -1.2275 C   0  0  0  0  0  0  0  0  0  0  0  0
    4.2143   -1.3233   -1.5550 O   0  0  0  0  0  0  0  0  0  0  0  0
    4.4617   -1.9403   -2.8101 C   0  0  0  0  0  0  0  0  0  0  0  0
    5.5727    2.5095    1.7012 H   0  0  0  0  0  0  0  0  0  0  0  0
    6.9784    1.6271    2.3214 H   0  0  0  0  0  0  0  0  0  0  0  0
    6.1858    1.0879    0.8337 H   0  0  0  0  0  0  0  0  0  0  0  0
    5.5720   -0.3620    2.7583 H   0  0  0  0  0  0  0  0  0  0  0  0
    4.9936    1.0466    3.6618 H   0  0  0  0  0  0  0  0  0  0  0  0
    3.2561    1.4465    1.8964 H   0  0  0  0  0  0  0  0  0  0  0  0
    3.0958   -0.1479    2.7039 H   0  0  0  0  0  0  0  0  0  0  0  0
    1.2401    0.3793    1.4102 H   0  0  0  0  0  0  0  0  0  0  0  0
   -4.0993   -0.2181   -1.3587 H   0  0  0  0  0  0  0  0  0  0  0  0
   -3.2722    2.1205   -1.1303 H   0  0  0  0  0  0  0  0  0  0  0  0
   -3.1261    1.8885    0.6004 H   0  0  0  0  0  0  0  0  0  0  0  0
   -5.6137    2.0894   -1.0715 H   0  0  0  0  0  0  0  0  0  0  0  0
   -5.2326    2.8100    0.4802 H   0  0  0  0  0  0  0  0  0  0  0  0
   -6.7619    1.2180    1.1834 H   0  0  0  0  0  0  0  0  0  0  0  0
   -6.4315    0.1441   -0.1667 H   0  0  0  0  0  0  0  0  0  0  0  0
   -4.6155    0.5206    2.2591 H   0  0  0  0  0  0  0  0  0  0  0  0
   -5.6846   -0.8503    1.9955 H   0  0  0  0  0  0  0  0  0  0  0  0
   -3.1732   -1.0889    1.3660 H   0  0  0  0  0  0  0  0  0  0  0  0
   -4.3635   -1.7481    0.2781 H   0  0  0  0  0  0  0  0  0  0  0  0
   -0.4512   -1.6458   -3.3403 H   0  0  0  0  0  0  0  0  0  0  0  0
    1.9362   -1.7549   -3.0225 H   0  0  0  0  0  0  0  0  0  0  0  0
    5.5405   -2.1015   -2.8971 H   0  0  0  0  0  0  0  0  0  0  0  0
    3.9732   -2.9182   -2.8723 H   0  0  0  0  0  0  0  0  0  0  0  0
    4.1549   -1.2906   -3.6364 H   0  0  0  0  0  0  0  0  0  0  0  0
  1  2  1  0
  2  3  1  0
  3  4  1  0
  4  5  1  0
  5  6  2  0
  6  7  1  0
  7  8  1  0
  8  9  2  0
  8 10  1  0
 10 11  1  0
 11 12  1  0
 12 13  1  0
 13 14  1  0
 14 15  1  0
 15 16  1  0
 10 17  1  0
 17 18  2  0
 17 19  1  0
 19 20  1  0
 20 21  1  0
 21 22  2  0
 22 23  1  0
 23 24  1  0
 22  5  1  0
 20  7  2  0
 16 11  1  0
  1 25  1  0
  1 26  1  0
  1 27  1  0
  2 28  1  0
  2 29  1  0
  3 30  1  0
  3 31  1  0
  6 32  1  0
 11 33  1  0
 12 34  1  0
 12 35  1  0
 13 36  1  0
 13 37  1  0
 14 38  1  0
 14 39  1  0
 15 40  1  0
 15 41  1  0
 16 42  1  0
 16 43  1  0
 19 44  1  0
 21 45  1  0
 24 46  1  0
 24 47  1  0
 24 48  1  0
M  END
>  <smiles>
CCCOc1cc2c(=O)n(C3CCCCC3)c(=O)[nH]c2cc1OC

$$$$
