mol_b5b04665ed68
     RDKit          3D

 61 64  0  0  0  0  0  0  0  0999 V2000
   -8.2637   -1.1009   -0.0962 O   0  0  0  0  0  0  0  0  0  0  0  0
   -7.7358   -0.6540    0.9086 C   0  0  0  0  0  0  0  0  0  0  0  0
   -8.3532    0.2977    1.6334 O   0  0  0  0  0  0  0  0  0  0  0  0
   -6.4439   -1.1273    1.5125 C   0  0  0  0  0  0  0  0  0  0  0  0
   -5.4941    0.0086    1.8809 C   0  0  0  0  0  0  0  0  0  0  0  0
   -4.9387    0.7266    0.6715 C   0  0  0  0  0  0  0  0  0  0  0  0
   -5.5217    1.9450    0.2558 C   0  0  0  0  0  0  0  0  0  0  0  0
   -5.0573    2.6443   -0.8622 C   0  0  0  0  0  0  0  0  0  0  0  0
   -3.9895    2.1621   -1.6202 C   0  0  0  0  0  0  0  0  0  0  0  0
   -3.4256    0.9617   -1.2000 C   0  0  0  0  0  0  0  0  0  0  0  0
   -2.3814    0.3344   -1.8072 O   0  0  0  0  0  0  0  0  0  0  0  0
   -2.1262   -0.8033   -1.0951 C   0  0  0  0  0  0  0  0  0  0  0  0
   -1.0038   -1.6592   -1.5750 C   0  0  0  0  0  0  0  0  0  0  0  0
   -0.8115   -1.4438   -2.9708 O   0  0  0  0  0  0  0  0  0  0  0  0
    0.3030   -1.4460   -0.7985 C   0  0  0  0  0  0  0  0  0  0  0  0
    0.8482    0.0039   -0.6981 C   0  0  0  0  0  0  0  0  0  0  0  0
    1.2917    0.6262   -2.0319 C   0  0  0  0  0  0  0  0  0  0  0  0
    2.5501   -0.0233   -2.6038 C   0  0  0  0  0  0  0  0  0  0  0  0
    3.7065    0.0298   -1.6073 C   0  0  0  0  0  0  0  0  0  0  0  0
    3.3141   -0.5635   -0.2457 C   0  0  0  0  0  0  0  0  0  0  0  0
    4.4118   -0.4851    0.7322 N   0  0  0  0  0  0  0  0  0  0  0  0
    4.9149    0.8065    1.1831 C   0  0  0  0  0  0  0  0  0  0  0  0
    6.4385    0.8183    1.2240 C   0  0  0  0  0  0  0  0  0  0  0  0
    7.0257   -0.4712    1.8018 C   0  0  0  0  0  0  0  0  0  0  0  0
    5.9654   -1.3981    2.3817 C   0  0  0  0  0  0  0  0  0  0  0  0
    4.8564   -1.6379    1.3760 C   0  0  0  0  0  0  0  0  0  0  0  0
    4.3877   -2.7578    1.1937 O   0  0  0  0  0  0  0  0  0  0  0  0
    2.0231    0.0694    0.3020 C   0  0  0  0  0  0  0  0  0  0  0  0
   -3.0090   -0.9068   -0.0400 C   0  0  0  0  0  0  0  0  0  0  0  0
   -3.8562    0.2354   -0.0955 C   0  0  0  0  0  0  0  0  0  0  0  0
   -9.1848    0.4595    1.1390 H   0  0  0  0  0  0  0  0  0  0  0  0
   -6.6950   -1.7103    2.4059 H   0  0  0  0  0  0  0  0  0  0  0  0
   -5.9681   -1.8117    0.8006 H   0  0  0  0  0  0  0  0  0  0  0  0
   -5.9801    0.7281    2.5511 H   0  0  0  0  0  0  0  0  0  0  0  0
   -4.6523   -0.4047    2.4507 H   0  0  0  0  0  0  0  0  0  0  0  0
   -6.3590    2.3599    0.8166 H   0  0  0  0  0  0  0  0  0  0  0  0
   -5.5362    3.5786   -1.1478 H   0  0  0  0  0  0  0  0  0  0  0  0
   -3.6163    2.6880   -2.4901 H   0  0  0  0  0  0  0  0  0  0  0  0
   -1.2980   -2.7099   -1.4677 H   0  0  0  0  0  0  0  0  0  0  0  0
   -1.3416   -0.6598   -3.2081 H   0  0  0  0  0  0  0  0  0  0  0  0
    1.0662   -2.0930   -1.2458 H   0  0  0  0  0  0  0  0  0  0  0  0
    0.1441   -1.8149    0.2241 H   0  0  0  0  0  0  0  0  0  0  0  0
    0.0501    0.6337   -0.2852 H   0  0  0  0  0  0  0  0  0  0  0  0
    1.4993    1.6919   -1.8645 H   0  0  0  0  0  0  0  0  0  0  0  0
    0.4890    0.6010   -2.7724 H   0  0  0  0  0  0  0  0  0  0  0  0
    2.8418    0.4956   -3.5242 H   0  0  0  0  0  0  0  0  0  0  0  0
    2.3463   -1.0633   -2.8823 H   0  0  0  0  0  0  0  0  0  0  0  0
    4.5686   -0.5123   -2.0147 H   0  0  0  0  0  0  0  0  0  0  0  0
    4.0234    1.0735   -1.4999 H   0  0  0  0  0  0  0  0  0  0  0  0
    3.1098   -1.6265   -0.4178 H   0  0  0  0  0  0  0  0  0  0  0  0
    4.5090    0.9830    2.1866 H   0  0  0  0  0  0  0  0  0  0  0  0
    4.5562    1.6146    0.5399 H   0  0  0  0  0  0  0  0  0  0  0  0
    6.7809    1.6836    1.8033 H   0  0  0  0  0  0  0  0  0  0  0  0
    6.8295    0.9545    0.2078 H   0  0  0  0  0  0  0  0  0  0  0  0
    7.7737   -0.2325    2.5663 H   0  0  0  0  0  0  0  0  0  0  0  0
    7.5606   -0.9993    1.0018 H   0  0  0  0  0  0  0  0  0  0  0  0
    6.4193   -2.3597    2.6449 H   0  0  0  0  0  0  0  0  0  0  0  0
    5.5264   -0.9750    3.2922 H   0  0  0  0  0  0  0  0  0  0  0  0
    1.7430   -0.4131    1.2469 H   0  0  0  0  0  0  0  0  0  0  0  0
    2.2056    1.1238    0.5478 H   0  0  0  0  0  0  0  0  0  0  0  0
   -3.0366   -1.7080    0.6848 H   0  0  0  0  0  0  0  0  0  0  0  0
  1  2  2  0
  2  3  1  0
  2  4  1  0
  4  5  1  0
  5  6  1  0
  6  7  1  0
  7  8  2  0
  8  9  1  0
  9 10  2  0
 10 11  1  0
 11 12  1  0
 12 13  1  0
 13 14  1  0
 13 15  1  0
 15 16  1  0
 16 17  1  0
 17 18  1  0
 18 19  1  0
 19 20  1  0
 20 21  1  0
 21 22  1  0
 22 23  1  0
 23 24  1  0
 24 25  1  0
 25 26  1  0
 26 27  2  0
 20 28  1  0
 12 29  2  0
 29 30  1  0
 30  6  2  0
 30 10  1  0
 28 16  1  0
 26 21  1  0
  3 31  1  0
  4 32  1  0
  4 33  1  0
  5 34  1  0
  5 35  1  0
  7 36  1  0
  8 37  1  0
  9 38  1  0
 13 39  1  0
 14 40  1  0
 15 41  1  0
 15 42  1  0
 16 43  1  0
 17 44  1  0
 17 45  1  0
 18 46  1  0
 18 47  1  0
 19 48  1  0
 19 49  1  0
 20 50  1  0
 22 51  1  0
 22 52  1  0
 23 53  1  0
 23 54  1  0
 24 55  1  0
 24 56  1  0
 25 57  1  0
 25 58  1  0
 28 59  1  0
 28 60  1  0
 29 61  1  0
M  END
>  <smiles>
O=C(O)CCc1cccc2oc(C(O)CC3CCCC(N4CCCCC4=O)C3)cc12

$$$$
