mol_a8c84c4ac6c0
     RDKit          3D

 49 52  0  0  0  0  0  0  0  0999 V2000
   -3.3777    3.3572   -0.5813 C   0  0  0  0  0  0  0  0  0  0  0  0
   -3.2533    2.3635    0.5773 C   0  0  0  0  0  0  0  0  0  0  0  0
   -1.7944    1.9660    0.7326 C   0  0  0  0  0  0  0  0  0  0  0  0
   -1.0406    2.6486    1.4311 O   0  0  0  0  0  0  0  0  0  0  0  0
   -1.3805    0.8472    0.0163 N   0  0  0  0  0  0  0  0  0  0  0  0
   -0.0561    0.4283    0.0795 C   0  0  0  0  0  0  0  0  0  0  0  0
    0.4178   -0.6497   -0.5760 C   0  0  0  0  0  0  0  0  0  0  0  0
    1.8772   -1.0681   -0.5513 C   0  0  0  0  0  0  0  0  0  0  0  0
    2.8682   -0.1389    0.1645 C   0  0  0  0  0  0  0  0  0  0  0  0
    4.2358   -0.6120    0.0251 N   0  0  0  0  0  0  0  0  0  0  0  0
    5.1348   -0.1164   -0.9849 C   0  0  0  0  0  0  0  0  0  0  0  0
    6.2470   -1.1476   -0.9992 C   0  0  0  0  0  0  0  0  0  0  0  0
    6.2677   -1.6886    0.4260 C   0  0  0  0  0  0  0  0  0  0  0  0
    4.8311   -1.5421    0.8612 C   0  0  0  0  0  0  0  0  0  0  0  0
    4.3078   -2.1181    1.7996 O   0  0  0  0  0  0  0  0  0  0  0  0
   -0.5169   -1.4365   -1.3696 C   0  0  0  0  0  0  0  0  0  0  0  0
   -0.0877   -2.5882   -1.9883 O   0  0  0  0  0  0  0  0  0  0  0  0
   -1.7917   -1.0576   -1.4952 C   0  0  0  0  0  0  0  0  0  0  0  0
   -2.3426    0.1734   -0.8446 C   0  0  0  0  0  0  0  0  0  0  0  0
   -3.5605   -0.0882   -0.0882 N   0  0  0  0  0  0  0  0  0  0  0  0
   -3.3981   -1.0393    1.0259 C   0  0  0  0  0  0  0  0  0  0  0  0
   -3.8658   -0.3234    2.2792 C   0  0  0  0  0  0  0  0  0  0  0  0
   -4.8222    0.7153    1.7440 C   0  0  0  0  0  0  0  0  0  0  0  0
   -4.1886    1.1452    0.4185 C   0  0  0  0  0  0  0  0  0  0  0  0
   -2.7052    4.2095   -0.4319 H   0  0  0  0  0  0  0  0  0  0  0  0
   -3.1264    2.9153   -1.5487 H   0  0  0  0  0  0  0  0  0  0  0  0
   -4.3993    3.7468   -0.6445 H   0  0  0  0  0  0  0  0  0  0  0  0
   -3.5246    2.9075    1.4917 H   0  0  0  0  0  0  0  0  0  0  0  0
    0.5848    1.0438    0.7055 H   0  0  0  0  0  0  0  0  0  0  0  0
    2.2187   -1.1850   -1.5891 H   0  0  0  0  0  0  0  0  0  0  0  0
    1.9490   -2.0594   -0.0841 H   0  0  0  0  0  0  0  0  0  0  0  0
    2.6330   -0.1081    1.2348 H   0  0  0  0  0  0  0  0  0  0  0  0
    2.8214    0.8824   -0.2296 H   0  0  0  0  0  0  0  0  0  0  0  0
    4.6292   -0.0420   -1.9518 H   0  0  0  0  0  0  0  0  0  0  0  0
    5.4940    0.8697   -0.6737 H   0  0  0  0  0  0  0  0  0  0  0  0
    7.2087   -0.7317   -1.3124 H   0  0  0  0  0  0  0  0  0  0  0  0
    5.9900   -1.9589   -1.6921 H   0  0  0  0  0  0  0  0  0  0  0  0
    6.5857   -2.7332    0.4611 H   0  0  0  0  0  0  0  0  0  0  0  0
    6.8991   -1.0782    1.0788 H   0  0  0  0  0  0  0  0  0  0  0  0
    0.6666   -2.9525   -1.4989 H   0  0  0  0  0  0  0  0  0  0  0  0
   -2.4732   -1.6514   -2.0951 H   0  0  0  0  0  0  0  0  0  0  0  0
   -2.5810    0.8536   -1.6705 H   0  0  0  0  0  0  0  0  0  0  0  0
   -2.3840   -1.4279    1.1671 H   0  0  0  0  0  0  0  0  0  0  0  0
   -4.0472   -1.9009    0.8296 H   0  0  0  0  0  0  0  0  0  0  0  0
   -4.3441   -0.9995    2.9937 H   0  0  0  0  0  0  0  0  0  0  0  0
   -3.0206    0.1637    2.7793 H   0  0  0  0  0  0  0  0  0  0  0  0
   -5.7973    0.2477    1.5542 H   0  0  0  0  0  0  0  0  0  0  0  0
   -4.9820    1.5356    2.4499 H   0  0  0  0  0  0  0  0  0  0  0  0
   -5.0058    1.4232   -0.2591 H   0  0  0  0  0  0  0  0  0  0  0  0
  1  2  1  0
  2  3  1  0
  3  4  2  0
  3  5  1  0
  5  6  1  0
  6  7  2  0
  7  8  1  0
  8  9  1  0
  9 10  1  0
 10 11  1  0
 11 12  1  0
 12 13  1  0
 13 14  1  0
 14 15  2  0
  7 16  1  0
 16 17  1  0
 16 18  2  0
 18 19  1  0
 19 20  1  0
 20 21  1  0
 21 22  1  0
 22 23  1  0
 23 24  1  0
 24  2  1  0
 19  5  1  0
 24 20  1  0
 14 10  1  0
  1 25  1  0
  1 26  1  0
  1 27  1  0
  2 28  1  0
  6 29  1  0
  8 30  1  0
  8 31  1  0
  9 32  1  0
  9 33  1  0
 11 34  1  0
 11 35  1  0
 12 36  1  0
 12 37  1  0
 13 38  1  0
 13 39  1  0
 17 40  1  0
 18 41  1  0
 19 42  1  0
 21 43  1  0
 21 44  1  0
 22 45  1  0
 22 46  1  0
 23 47  1  0
 23 48  1  0
 24 49  1  0
M  END
>  <smiles>
CC1C(=O)N2C=C(CCN3CCCC3=O)C(O)=CC2N2CCCC12

$$$$
