mol_85130fdd2312
     RDKit          3D

 53 56  0  0  0  0  0  0  0  0999 V2000
    1.2354   -2.1875   -3.9280 C   0  0  0  0  0  0  0  0  0  0  0  0
    0.7006   -1.3904   -2.7797 C   0  0  0  0  0  0  0  0  0  0  0  0
    1.1966   -1.3255   -1.5255 C   0  0  0  0  0  0  0  0  0  0  0  0
    2.4799   -2.0018   -1.0816 C   0  0  0  0  0  0  0  0  0  0  0  0
    3.2786   -1.0994   -0.2931 N   0  0  0  0  0  0  0  0  0  0  0  0
    2.7622   -0.0989    0.5032 C   0  0  0  0  0  0  0  0  0  0  0  0
    3.7814    0.5007    1.1415 C   0  0  0  0  0  0  0  0  0  0  0  0
    4.9573   -0.1233    0.7776 N   0  0  0  0  0  0  0  0  0  0  0  0
    6.2883    0.2323    1.2017 C   0  0  0  0  0  0  0  0  0  0  0  0
    6.8943    1.2718    0.2767 C   0  0  0  0  0  0  0  0  0  0  0  0
    6.3132    2.1647   -0.3202 O   0  0  0  0  0  0  0  0  0  0  0  0
    8.2413    1.1892    0.2175 O   0  0  0  0  0  0  0  0  0  0  0  0
    4.6730   -1.1515   -0.1465 C   0  0  0  0  0  0  0  0  0  0  0  0
    5.4630   -1.9096   -0.6806 O   0  0  0  0  0  0  0  0  0  0  0  0
    1.3210    0.1400    0.5083 C   0  0  0  0  0  0  0  0  0  0  0  0
    0.7063    0.9352    1.4804 C   0  0  0  0  0  0  0  0  0  0  0  0
   -0.6830    1.1148    1.4744 C   0  0  0  0  0  0  0  0  0  0  0  0
   -1.2276    1.9339    2.4339 O   0  0  0  0  0  0  0  0  0  0  0  0
   -1.5112    0.5055    0.5110 C   0  0  0  0  0  0  0  0  0  0  0  0
   -2.8956    0.6285    0.4807 N   0  0  0  0  0  0  0  0  0  0  0  0
   -3.6072    0.7937   -0.7794 C   0  0  0  0  0  0  0  0  0  0  0  0
   -4.7043   -0.2628   -0.9002 C   0  0  0  0  0  0  0  0  0  0  0  0
   -5.2489   -0.7355    0.4508 C   0  0  0  0  0  0  0  0  0  0  0  0
   -5.1273    0.3203    1.5560 C   0  0  0  0  0  0  0  0  0  0  0  0
   -6.1011    1.4832    1.3402 C   0  0  0  0  0  0  0  0  0  0  0  0
   -3.6675    0.8040    1.7151 C   0  0  0  0  0  0  0  0  0  0  0  0
   -0.8615   -0.2938   -0.4511 C   0  0  0  0  0  0  0  0  0  0  0  0
    0.5354   -0.4741   -0.4863 C   0  0  0  0  0  0  0  0  0  0  0  0
    1.9848   -2.9259   -3.6358 H   0  0  0  0  0  0  0  0  0  0  0  0
    1.6746   -1.5184   -4.6739 H   0  0  0  0  0  0  0  0  0  0  0  0
    0.4142   -2.7342   -4.4034 H   0  0  0  0  0  0  0  0  0  0  0  0
   -0.1811   -0.8074   -3.0403 H   0  0  0  0  0  0  0  0  0  0  0  0
    3.0957   -2.3521   -1.9143 H   0  0  0  0  0  0  0  0  0  0  0  0
    2.2471   -2.8726   -0.4569 H   0  0  0  0  0  0  0  0  0  0  0  0
    3.7668    1.3345    1.8255 H   0  0  0  0  0  0  0  0  0  0  0  0
    6.2655    0.6233    2.2233 H   0  0  0  0  0  0  0  0  0  0  0  0
    6.9100   -0.6688    1.1689 H   0  0  0  0  0  0  0  0  0  0  0  0
    8.4929    1.8997   -0.4100 H   0  0  0  0  0  0  0  0  0  0  0  0
    1.3077    1.4084    2.2497 H   0  0  0  0  0  0  0  0  0  0  0  0
   -0.5145    2.3673    2.9266 H   0  0  0  0  0  0  0  0  0  0  0  0
   -4.0482    1.7974   -0.8021 H   0  0  0  0  0  0  0  0  0  0  0  0
   -2.9600    0.7551   -1.6633 H   0  0  0  0  0  0  0  0  0  0  0  0
   -5.5188    0.1410   -1.5135 H   0  0  0  0  0  0  0  0  0  0  0  0
   -4.3194   -1.1349   -1.4431 H   0  0  0  0  0  0  0  0  0  0  0  0
   -6.2882   -1.0656    0.3369 H   0  0  0  0  0  0  0  0  0  0  0  0
   -4.6817   -1.6235    0.7610 H   0  0  0  0  0  0  0  0  0  0  0  0
   -5.4248   -0.1477    2.5043 H   0  0  0  0  0  0  0  0  0  0  0  0
   -7.1304    1.1144    1.2747 H   0  0  0  0  0  0  0  0  0  0  0  0
   -5.8902    2.0462    0.4277 H   0  0  0  0  0  0  0  0  0  0  0  0
   -6.0547    2.1829    2.1818 H   0  0  0  0  0  0  0  0  0  0  0  0
   -3.6516    1.8518    2.0355 H   0  0  0  0  0  0  0  0  0  0  0  0
   -3.2144    0.2000    2.5122 H   0  0  0  0  0  0  0  0  0  0  0  0
   -1.4739   -0.8345   -1.1685 H   0  0  0  0  0  0  0  0  0  0  0  0
  1  2  1  0
  2  3  2  3
  3  4  1  0
  4  5  1  0
  5  6  1  0
  6  7  2  0
  7  8  1  0
  8  9  1  0
  9 10  1  0
 10 11  2  0
 10 12  1  0
  8 13  1  0
 13 14  2  0
  6 15  1  0
 15 16  1  0
 16 17  2  0
 17 18  1  0
 17 19  1  0
 19 20  1  0
 20 21  1  0
 21 22  1  0
 22 23  1  0
 23 24  1  0
 24 25  1  0
 24 26  1  0
 19 27  2  0
 27 28  1  0
 28  3  1  0
 13  5  1  0
 28 15  2  0
 26 20  1  0
  1 29  1  0
  1 30  1  0
  1 31  1  0
  2 32  1  0
  4 33  1  0
  4 34  1  0
  7 35  1  0
  9 36  1  0
  9 37  1  0
 12 38  1  0
 16 39  1  0
 18 40  1  0
 21 41  1  0
 21 42  1  0
 22 43  1  0
 22 44  1  0
 23 45  1  0
 23 46  1  0
 24 47  1  0
 25 48  1  0
 25 49  1  0
 25 50  1  0
 26 51  1  0
 26 52  1  0
 27 53  1  0
M  END
>  <smiles>
CC=C1Cn2c(cn(CC(=O)O)c2=O)-c2cc(O)c(N3CCCC(C)C3)cc21

$$$$
