mol_183468a978ef
     RDKit          3D

 57 60  0  0  0  0  0  0  0  0999 V2000
    6.7953   -1.1579   -1.4231 O   0  0  0  0  0  0  0  0  0  0  0  0
    7.0040   -0.0557   -0.9381 C   0  0  0  0  0  0  0  0  0  0  0  0
    8.2036    0.2345   -0.3946 O   0  0  0  0  0  0  0  0  0  0  0  0
    6.0565    1.1324   -0.9428 C   0  0  0  0  0  0  0  0  0  0  0  0
    4.6787    0.6784   -1.0274 N   0  0  0  0  0  0  0  0  0  0  0  0
    3.9461    0.3919    0.1033 C   0  0  0  0  0  0  0  0  0  0  0  0
    4.3820    0.5729    1.2353 O   0  0  0  0  0  0  0  0  0  0  0  0
    2.5551   -0.1586   -0.1894 C   0  0  0  0  0  0  0  0  0  0  0  0
    2.6296   -1.5711   -0.8015 C   0  0  0  0  0  0  0  0  0  0  0  0
    2.2129   -2.6351    0.2081 C   0  0  0  0  0  0  0  0  0  0  0  0
    0.8244   -2.3545    0.8023 C   0  0  0  0  0  0  0  0  0  0  0  0
    0.4730   -0.9211    0.8529 N   0  0  0  0  0  0  0  0  0  0  0  0
   -0.5802   -0.6626    1.8462 C   0  0  0  0  0  0  0  0  0  0  0  0
   -1.6669    0.3321    1.3629 C   0  0  0  0  0  0  0  0  0  0  0  0
   -1.1261    1.7642    1.2411 C   0  0  0  0  0  0  0  0  0  0  0  0
   -2.2639    2.7557    1.0285 C   0  0  0  0  0  0  0  0  0  0  0  0
   -3.2554    2.3184   -0.0202 C   0  0  0  0  0  0  0  0  0  0  0  0
   -4.1705    3.2681   -0.5049 C   0  0  0  0  0  0  0  0  0  0  0  0
   -5.1512    2.9111   -1.4268 C   0  0  0  0  0  0  0  0  0  0  0  0
   -5.2394    1.5944   -1.8653 C   0  0  0  0  0  0  0  0  0  0  0  0
   -4.3394    0.6340   -1.3867 C   0  0  0  0  0  0  0  0  0  0  0  0
   -3.3348    0.9817   -0.4609 C   0  0  0  0  0  0  0  0  0  0  0  0
   -2.3241   -0.0585    0.0115 C   0  0  0  0  0  0  0  0  0  0  0  0
   -2.9919   -1.4377    0.0525 C   0  0  0  0  0  0  0  0  0  0  0  0
   -3.5043   -1.8017   -1.3315 C   0  0  0  0  0  0  0  0  0  0  0  0
   -4.1225   -3.0842   -1.2731 O   0  0  0  0  0  0  0  0  0  0  0  0
   -4.4928   -0.7687   -1.8526 C   0  0  0  0  0  0  0  0  0  0  0  0
   -5.3788   -1.0836   -2.6474 O   0  0  0  0  0  0  0  0  0  0  0  0
    1.6855   -0.1193    1.0792 C   0  0  0  0  0  0  0  0  0  0  0  0
    8.7011   -0.6083   -0.4503 H   0  0  0  0  0  0  0  0  0  0  0  0
    6.2666    1.7517   -1.8187 H   0  0  0  0  0  0  0  0  0  0  0  0
    6.1954    1.7161   -0.0280 H   0  0  0  0  0  0  0  0  0  0  0  0
    4.3175    0.4143   -1.9353 H   0  0  0  0  0  0  0  0  0  0  0  0
    2.1061    0.5088   -0.9392 H   0  0  0  0  0  0  0  0  0  0  0  0
    3.6297   -1.8043   -1.1835 H   0  0  0  0  0  0  0  0  0  0  0  0
    1.9486   -1.6206   -1.6612 H   0  0  0  0  0  0  0  0  0  0  0  0
    2.2195   -3.6244   -0.2633 H   0  0  0  0  0  0  0  0  0  0  0  0
    2.9554   -2.6660    1.0160 H   0  0  0  0  0  0  0  0  0  0  0  0
    0.7966   -2.8090    1.8015 H   0  0  0  0  0  0  0  0  0  0  0  0
    0.0693   -2.8669    0.1947 H   0  0  0  0  0  0  0  0  0  0  0  0
   -1.0967   -1.5951    2.1079 H   0  0  0  0  0  0  0  0  0  0  0  0
   -0.1477   -0.3125    2.7933 H   0  0  0  0  0  0  0  0  0  0  0  0
   -2.4471    0.3361    2.1389 H   0  0  0  0  0  0  0  0  0  0  0  0
   -0.4330    1.8356    0.3935 H   0  0  0  0  0  0  0  0  0  0  0  0
   -0.5705    2.0481    2.1424 H   0  0  0  0  0  0  0  0  0  0  0  0
   -1.8367    3.7280    0.7547 H   0  0  0  0  0  0  0  0  0  0  0  0
   -2.8069    2.8882    1.9729 H   0  0  0  0  0  0  0  0  0  0  0  0
   -4.1246    4.2983   -0.1555 H   0  0  0  0  0  0  0  0  0  0  0  0
   -5.8531    3.6557   -1.7938 H   0  0  0  0  0  0  0  0  0  0  0  0
   -6.0159    1.3170   -2.5757 H   0  0  0  0  0  0  0  0  0  0  0  0
   -1.5381   -0.0790   -0.7576 H   0  0  0  0  0  0  0  0  0  0  0  0
   -3.8169   -1.4492    0.7780 H   0  0  0  0  0  0  0  0  0  0  0  0
   -2.2961   -2.2180    0.3758 H   0  0  0  0  0  0  0  0  0  0  0  0
   -2.6775   -1.8650   -2.0483 H   0  0  0  0  0  0  0  0  0  0  0  0
   -4.7190   -3.1249   -2.0481 H   0  0  0  0  0  0  0  0  0  0  0  0
    1.4447    0.9284    1.2865 H   0  0  0  0  0  0  0  0  0  0  0  0
    2.2247   -0.4823    1.9649 H   0  0  0  0  0  0  0  0  0  0  0  0
  1  2  2  0
  2  3  1  0
  2  4  1  0
  4  5  1  0
  5  6  1  0
  6  7  2  0
  6  8  1  0
  8  9  1  0
  9 10  1  0
 10 11  1  0
 11 12  1  0
 12 13  1  0
 13 14  1  0
 14 15  1  0
 15 16  1  0
 16 17  1  0
 17 18  2  0
 18 19  1  0
 19 20  2  0
 20 21  1  0
 21 22  2  0
 22 23  1  0
 23 24  1  0
 24 25  1  0
 25 26  1  0
 25 27  1  0
 27 28  2  0
 12 29  1  0
 29  8  1  0
 23 14  1  0
 22 17  1  0
 27 21  1  0
  3 30  1  0
  4 31  1  0
  4 32  1  0
  5 33  1  0
  8 34  1  0
  9 35  1  0
  9 36  1  0
 10 37  1  0
 10 38  1  0
 11 39  1  0
 11 40  1  0
 13 41  1  0
 13 42  1  0
 14 43  1  0
 15 44  1  0
 15 45  1  0
 16 46  1  0
 16 47  1  0
 18 48  1  0
 19 49  1  0
 20 50  1  0
 23 51  1  0
 24 52  1  0
 24 53  1  0
 25 54  1  0
 26 55  1  0
 29 56  1  0
 29 57  1  0
M  END
>  <smiles>
O=C(O)CNC(=O)C1CCCN(CC2CCc3cccc4c3C2CC(O)C4=O)C1

$$$$
