mol_4432e4c2230d
     RDKit          3D

 54 56  0  0  0  0  0  0  0  0999 V2000
   -3.8460    3.1607   -2.4331 N   0  0  0  0  0  0  0  0  0  0  0  0
   -3.1869    2.1314   -1.6242 C   0  0  0  0  0  0  0  0  0  0  0  0
   -4.1859    1.0926   -1.0899 C   0  0  0  0  0  0  0  0  0  0  0  0
   -3.6359   -0.0442   -0.2433 C   0  0  0  0  0  0  0  0  0  0  0  0
   -2.2678   -0.1490    0.0726 C   0  0  0  0  0  0  0  0  0  0  0  0
   -1.7283   -1.1750    0.8882 C   0  0  0  0  0  0  0  0  0  0  0  0
   -0.3543   -1.3093    1.2557 C   0  0  0  0  0  0  0  0  0  0  0  0
    0.6742   -0.3603    1.0326 N   0  0  0  0  0  0  0  0  0  0  0  0
    0.5827    1.0176    1.0121 C   0  0  0  0  0  0  0  0  0  0  0  0
   -0.4094    1.6911    1.2730 O   0  0  0  0  0  0  0  0  0  0  0  0
    1.9067    1.7001    0.7257 C   0  0  0  0  0  0  0  0  0  0  0  0
    2.4933    1.2820   -0.6214 C   0  0  0  0  0  0  0  0  0  0  0  0
    3.9030    0.8959   -0.5142 N   0  0  0  0  0  0  0  0  0  0  0  0
    4.9046    1.9333   -0.7365 C   0  0  0  0  0  0  0  0  0  0  0  0
    6.3018    1.3865   -0.9743 C   0  0  0  0  0  0  0  0  0  0  0  0
    6.6427    0.3872    0.1156 C   0  0  0  0  0  0  0  0  0  0  0  0
    5.6531   -0.7625    0.0766 C   0  0  0  0  0  0  0  0  0  0  0  0
    4.2026   -0.3247    0.0757 C   0  0  0  0  0  0  0  0  0  0  0  0
    3.3239   -1.0641    0.5270 O   0  0  0  0  0  0  0  0  0  0  0  0
    0.0849   -2.4821    1.8931 C   0  0  0  0  0  0  0  0  0  0  0  0
   -0.8143   -3.4703    2.2727 C   0  0  0  0  0  0  0  0  0  0  0  0
   -2.1668   -3.3071    2.0006 C   0  0  0  0  0  0  0  0  0  0  0  0
   -2.6334   -2.1829    1.3030 C   0  0  0  0  0  0  0  0  0  0  0  0
   -4.0036   -2.0856    0.9990 C   0  0  0  0  0  0  0  0  0  0  0  0
   -4.5136   -1.0246    0.2471 C   0  0  0  0  0  0  0  0  0  0  0  0
   -5.8306   -0.8571   -0.0874 O   0  0  0  0  0  0  0  0  0  0  0  0
   -6.7796   -1.7827    0.4097 C   0  0  0  0  0  0  0  0  0  0  0  0
   -8.0094   -1.4058   -0.0069 F   0  0  0  0  0  0  0  0  0  0  0  0
   -6.7846   -1.8061    1.7594 F   0  0  0  0  0  0  0  0  0  0  0  0
   -6.5424   -3.0252   -0.0633 F   0  0  0  0  0  0  0  0  0  0  0  0
   -4.5316    3.6496   -1.8577 H   0  0  0  0  0  0  0  0  0  0  0  0
   -4.3747    2.7169   -3.1831 H   0  0  0  0  0  0  0  0  0  0  0  0
   -2.4281    1.6442   -2.2464 H   0  0  0  0  0  0  0  0  0  0  0  0
   -2.6666    2.6249   -0.7960 H   0  0  0  0  0  0  0  0  0  0  0  0
   -4.9386    1.6204   -0.4888 H   0  0  0  0  0  0  0  0  0  0  0  0
   -4.7038    0.6454   -1.9491 H   0  0  0  0  0  0  0  0  0  0  0  0
   -1.5846    0.5799   -0.3474 H   0  0  0  0  0  0  0  0  0  0  0  0
    1.6265   -0.7388    1.0425 H   0  0  0  0  0  0  0  0  0  0  0  0
    1.7416    2.7842    0.7271 H   0  0  0  0  0  0  0  0  0  0  0  0
    2.5815    1.4821    1.5621 H   0  0  0  0  0  0  0  0  0  0  0  0
    2.4076    2.1025   -1.3433 H   0  0  0  0  0  0  0  0  0  0  0  0
    1.9540    0.4346   -1.0606 H   0  0  0  0  0  0  0  0  0  0  0  0
    4.8976    2.5818    0.1475 H   0  0  0  0  0  0  0  0  0  0  0  0
    4.6028    2.5355   -1.6005 H   0  0  0  0  0  0  0  0  0  0  0  0
    7.0280    2.2064   -0.9818 H   0  0  0  0  0  0  0  0  0  0  0  0
    6.3509    0.8975   -1.9550 H   0  0  0  0  0  0  0  0  0  0  0  0
    7.6605    0.0075   -0.0249 H   0  0  0  0  0  0  0  0  0  0  0  0
    6.6095    0.8784    1.0958 H   0  0  0  0  0  0  0  0  0  0  0  0
    5.8103   -1.3646   -0.8261 H   0  0  0  0  0  0  0  0  0  0  0  0
    5.8173   -1.4125    0.9432 H   0  0  0  0  0  0  0  0  0  0  0  0
    1.1361   -2.6153    2.1420 H   0  0  0  0  0  0  0  0  0  0  0  0
   -0.4635   -4.3575    2.7926 H   0  0  0  0  0  0  0  0  0  0  0  0
   -2.8567   -4.0871    2.3176 H   0  0  0  0  0  0  0  0  0  0  0  0
   -4.6565   -2.8759    1.3603 H   0  0  0  0  0  0  0  0  0  0  0  0
  1  2  1  0
  2  3  1  0
  3  4  1  0
  4  5  2  0
  5  6  1  0
  6  7  2  0
  7  8  1  0
  8  9  1  0
  9 10  2  0
  9 11  1  0
 11 12  1  0
 12 13  1  0
 13 14  1  0
 14 15  1  0
 15 16  1  0
 16 17  1  0
 17 18  1  0
 18 19  2  0
  7 20  1  0
 20 21  2  0
 21 22  1  0
 22 23  2  0
 23 24  1  0
 24 25  2  0
 25 26  1  0
 26 27  1  0
 27 28  1  0
 27 29  1  0
 27 30  1  0
 25  4  1  0
 23  6  1  0
 18 13  1  0
  1 31  1  0
  1 32  1  0
  2 33  1  0
  2 34  1  0
  3 35  1  0
  3 36  1  0
  5 37  1  0
  8 38  1  0
 11 39  1  0
 11 40  1  0
 12 41  1  0
 12 42  1  0
 14 43  1  0
 14 44  1  0
 15 45  1  0
 15 46  1  0
 16 47  1  0
 16 48  1  0
 17 49  1  0
 17 50  1  0
 20 51  1  0
 21 52  1  0
 22 53  1  0
 24 54  1  0
M  END
>  <smiles>
NCCc1cc2c(NC(=O)CCN3CCCCC3=O)cccc2cc1OC(F)(F)F

$$$$
