mol_9867435c671d
     RDKit          3D

 51 54  0  0  0  0  0  0  0  0999 V2000
    5.3626    1.8303    1.6640 C   0  0  0  0  0  0  0  0  0  0  0  0
    4.9501    1.4227    0.2568 C   0  0  0  0  0  0  0  0  0  0  0  0
    3.4454    1.4455    0.0721 C   0  0  0  0  0  0  0  0  0  0  0  0
    2.8855    2.6216   -0.4416 C   0  0  0  0  0  0  0  0  0  0  0  0
    1.5158    2.7357   -0.6167 C   0  0  0  0  0  0  0  0  0  0  0  0
    1.0792    3.9502   -1.0667 O   0  0  0  0  0  0  0  0  0  0  0  0
    0.6581    1.6658   -0.3356 C   0  0  0  0  0  0  0  0  0  0  0  0
    1.1885    0.4638    0.1985 C   0  0  0  0  0  0  0  0  0  0  0  0
    0.3449   -0.6331    0.5277 C   0  0  0  0  0  0  0  0  0  0  0  0
    0.8899   -1.7685    1.1556 C   0  0  0  0  0  0  0  0  0  0  0  0
    2.2582   -1.8681    1.3899 C   0  0  0  0  0  0  0  0  0  0  0  0
    2.8666   -3.0597    2.0311 C   0  0  0  0  0  0  0  0  0  0  0  0
    4.0491   -3.2125    2.2757 O   0  0  0  0  0  0  0  0  0  0  0  0
    1.9646   -4.0091    2.3362 O   0  0  0  0  0  0  0  0  0  0  0  0
    3.0964   -0.8178    1.0134 C   0  0  0  0  0  0  0  0  0  0  0  0
    2.5956    0.3630    0.4260 C   0  0  0  0  0  0  0  0  0  0  0  0
   -1.1591   -0.5790    0.2576 C   0  0  0  0  0  0  0  0  0  0  0  0
   -1.7480   -1.9459   -0.1654 C   0  0  0  0  0  0  0  0  0  0  0  0
   -3.0255   -1.8631   -1.0105 C   0  0  0  0  0  0  0  0  0  0  0  0
   -3.8814   -0.6143   -0.7357 C   0  0  0  0  0  0  0  0  0  0  0  0
   -5.0769   -0.6116   -1.7077 C   0  0  0  0  0  0  0  0  0  0  0  0
   -4.4630   -0.6759    0.6790 C   0  0  0  0  0  0  0  0  0  0  0  0
   -4.3233   -1.5745    1.4919 O   0  0  0  0  0  0  0  0  0  0  0  0
   -5.2124    0.3979    0.9993 O   0  0  0  0  0  0  0  0  0  0  0  0
   -3.0376    0.6686   -0.9342 C   0  0  0  0  0  0  0  0  0  0  0  0
   -1.5114    0.4638   -0.8101 C   0  0  0  0  0  0  0  0  0  0  0  0
   -0.8312    1.8045   -0.5284 C   0  0  0  0  0  0  0  0  0  0  0  0
    5.0176    2.8430    1.8991 H   0  0  0  0  0  0  0  0  0  0  0  0
    4.9498    1.1536    2.4190 H   0  0  0  0  0  0  0  0  0  0  0  0
    6.4532    1.8147    1.7567 H   0  0  0  0  0  0  0  0  0  0  0  0
    5.4176    2.1074   -0.4630 H   0  0  0  0  0  0  0  0  0  0  0  0
    5.3546    0.4362    0.0052 H   0  0  0  0  0  0  0  0  0  0  0  0
    3.5189    3.4709   -0.6892 H   0  0  0  0  0  0  0  0  0  0  0  0
    0.1412    4.0545   -0.8461 H   0  0  0  0  0  0  0  0  0  0  0  0
    0.2418   -2.5865    1.4615 H   0  0  0  0  0  0  0  0  0  0  0  0
    2.5012   -4.7201    2.7450 H   0  0  0  0  0  0  0  0  0  0  0  0
    4.1606   -0.9285    1.2101 H   0  0  0  0  0  0  0  0  0  0  0  0
   -1.6263   -0.2775    1.2060 H   0  0  0  0  0  0  0  0  0  0  0  0
   -1.9531   -2.5378    0.7358 H   0  0  0  0  0  0  0  0  0  0  0  0
   -1.0145   -2.5260   -0.7413 H   0  0  0  0  0  0  0  0  0  0  0  0
   -2.7331   -1.8673   -2.0699 H   0  0  0  0  0  0  0  0  0  0  0  0
   -3.6089   -2.7807   -0.8594 H   0  0  0  0  0  0  0  0  0  0  0  0
   -5.6913    0.2880   -1.5870 H   0  0  0  0  0  0  0  0  0  0  0  0
   -4.7414   -0.6453   -2.7504 H   0  0  0  0  0  0  0  0  0  0  0  0
   -5.7281   -1.4768   -1.5364 H   0  0  0  0  0  0  0  0  0  0  0  0
   -5.5252    0.2045    1.9085 H   0  0  0  0  0  0  0  0  0  0  0  0
   -3.2263    1.0925   -1.9300 H   0  0  0  0  0  0  0  0  0  0  0  0
   -3.3581    1.4437   -0.2270 H   0  0  0  0  0  0  0  0  0  0  0  0
   -1.1379    0.1005   -1.7803 H   0  0  0  0  0  0  0  0  0  0  0  0
   -1.0442    2.4657   -1.3770 H   0  0  0  0  0  0  0  0  0  0  0  0
   -1.2485    2.2712    0.3729 H   0  0  0  0  0  0  0  0  0  0  0  0
  1  2  1  0
  2  3  1  0
  3  4  1  0
  4  5  2  0
  5  6  1  0
  5  7  1  0
  7  8  2  0
  8  9  1  0
  9 10  2  0
 10 11  1  0
 11 12  1  0
 12 13  2  0
 12 14  1  0
 11 15  2  0
 15 16  1  0
  9 17  1  0
 17 18  1  0
 18 19  1  0
 19 20  1  0
 20 21  1  0
 20 22  1  0
 22 23  2  0
 22 24  1  0
 20 25  1  0
 25 26  1  0
 26 27  1  0
 16  3  2  0
 26 17  1  0
 27  7  1  0
 16  8  1  0
  1 28  1  0
  1 29  1  0
  1 30  1  0
  2 31  1  0
  2 32  1  0
  4 33  1  0
  6 34  1  0
 10 35  1  0
 14 36  1  0
 15 37  1  0
 17 38  1  0
 18 39  1  0
 18 40  1  0
 19 41  1  0
 19 42  1  0
 21 43  1  0
 21 44  1  0
 21 45  1  0
 24 46  1  0
 25 47  1  0
 25 48  1  0
 26 49  1  0
 27 50  1  0
 27 51  1  0
M  END
>  <smiles>
CCc1cc(O)c2c3c(cc(C(=O)O)cc13)C1CCC(C)(C(=O)O)CC1C2

$$$$
