mol_27fa14a4957f
     RDKit          3D

 55 58  0  0  0  0  0  0  0  0999 V2000
   -6.1804    2.1548   -0.1326 C   0  0  0  0  0  0  0  0  0  0  0  0
   -5.4911    1.4382    1.0186 C   0  0  0  0  0  0  0  0  0  0  0  0
   -4.2017    0.8092    0.5974 C   0  0  0  0  0  0  0  0  0  0  0  0
   -3.8889   -0.4826    0.3418 C   0  0  0  0  0  0  0  0  0  0  0  0
   -4.8619   -1.6102    0.4262 C   0  0  0  0  0  0  0  0  0  0  0  0
   -2.5253   -0.6065    0.0054 N   0  0  0  0  0  0  0  0  0  0  0  0
   -1.9066    0.6579    0.0726 C   0  0  0  0  0  0  0  0  0  0  0  0
   -0.5989    0.9129   -0.1328 C   0  0  0  0  0  0  0  0  0  0  0  0
    0.1018    2.2420   -0.1065 C   0  0  0  0  0  0  0  0  0  0  0  0
   -0.7856    3.3408    0.0693 O   0  0  0  0  0  0  0  0  0  0  0  0
    0.2479   -0.2622   -0.4432 C   0  0  0  0  0  0  0  0  0  0  0  0
    1.5785   -0.0263   -0.5905 N   0  0  0  0  0  0  0  0  0  0  0  0
    2.3538   -1.0775   -0.9509 C   0  0  0  0  0  0  0  0  0  0  0  0
    3.8073   -0.8250   -1.1974 C   0  0  0  0  0  0  0  0  0  0  0  0
    4.3366   -1.4274   -2.1343 O   0  0  0  0  0  0  0  0  0  0  0  0
    4.5331    0.0332   -0.3650 N   0  0  0  0  0  0  0  0  0  0  0  0
    5.8992    0.3755   -0.7543 C   0  0  0  0  0  0  0  0  0  0  0  0
    6.9168   -0.5976   -0.1790 C   0  0  0  0  0  0  0  0  0  0  0  0
    4.0408    0.5797    0.9052 C   0  0  0  0  0  0  0  0  0  0  0  0
    3.6542    2.0507    0.8261 C   0  0  0  0  0  0  0  0  0  0  0  0
    3.4738    2.7382   -0.1654 O   0  0  0  0  0  0  0  0  0  0  0  0
    3.4979    2.5928    2.0556 O   0  0  0  0  0  0  0  0  0  0  0  0
    1.8652   -2.3593   -1.1577 C   0  0  0  0  0  0  0  0  0  0  0  0
    0.5042   -2.5972   -0.9590 C   0  0  0  0  0  0  0  0  0  0  0  0
   -0.0341   -3.8751   -1.1328 C   0  0  0  0  0  0  0  0  0  0  0  0
   -1.3932   -4.0898   -0.9372 C   0  0  0  0  0  0  0  0  0  0  0  0
   -2.2311   -3.0338   -0.5641 C   0  0  0  0  0  0  0  0  0  0  0  0
   -1.7366   -1.7378   -0.3749 C   0  0  0  0  0  0  0  0  0  0  0  0
   -0.3431   -1.5291   -0.5866 C   0  0  0  0  0  0  0  0  0  0  0  0
   -2.9728    1.6685    0.4278 C   0  0  0  0  0  0  0  0  0  0  0  0
   -6.4041    1.4630   -0.9518 H   0  0  0  0  0  0  0  0  0  0  0  0
   -5.5603    2.9654   -0.5292 H   0  0  0  0  0  0  0  0  0  0  0  0
   -7.1248    2.5920    0.2074 H   0  0  0  0  0  0  0  0  0  0  0  0
   -5.2960    2.1513    1.8286 H   0  0  0  0  0  0  0  0  0  0  0  0
   -6.1779    0.6969    1.4380 H   0  0  0  0  0  0  0  0  0  0  0  0
   -4.5159   -2.3698    1.1338 H   0  0  0  0  0  0  0  0  0  0  0  0
   -5.0213   -2.0562   -0.5601 H   0  0  0  0  0  0  0  0  0  0  0  0
   -5.8479   -1.2941    0.7766 H   0  0  0  0  0  0  0  0  0  0  0  0
    0.8153    2.2711    0.7218 H   0  0  0  0  0  0  0  0  0  0  0  0
    0.6355    2.4058   -1.0494 H   0  0  0  0  0  0  0  0  0  0  0  0
   -0.2724    4.1363   -0.1529 H   0  0  0  0  0  0  0  0  0  0  0  0
    5.9768    0.3688   -1.8476 H   0  0  0  0  0  0  0  0  0  0  0  0
    6.1192    1.3962   -0.4229 H   0  0  0  0  0  0  0  0  0  0  0  0
    7.9269   -0.3229   -0.4982 H   0  0  0  0  0  0  0  0  0  0  0  0
    6.7185   -1.6208   -0.5143 H   0  0  0  0  0  0  0  0  0  0  0  0
    6.8931   -0.5955    0.9153 H   0  0  0  0  0  0  0  0  0  0  0  0
    4.8500    0.4783    1.6373 H   0  0  0  0  0  0  0  0  0  0  0  0
    3.1886    0.0073    1.2777 H   0  0  0  0  0  0  0  0  0  0  0  0
    3.2538    3.5245    1.8738 H   0  0  0  0  0  0  0  0  0  0  0  0
    2.5396   -3.1525   -1.4675 H   0  0  0  0  0  0  0  0  0  0  0  0
    0.5966   -4.7119   -1.4260 H   0  0  0  0  0  0  0  0  0  0  0  0
   -1.8105   -5.0842   -1.0793 H   0  0  0  0  0  0  0  0  0  0  0  0
   -3.2763   -3.2747   -0.4437 H   0  0  0  0  0  0  0  0  0  0  0  0
   -2.7399    2.1815    1.3664 H   0  0  0  0  0  0  0  0  0  0  0  0
   -3.1264    2.3873   -0.3830 H   0  0  0  0  0  0  0  0  0  0  0  0
  1  2  1  0
  2  3  1  0
  3  4  2  0
  4  5  1  0
  4  6  1  0
  6  7  1  0
  7  8  2  0
  8  9  1  0
  9 10  1  0
  8 11  1  0
 11 12  1  0
 12 13  2  0
 13 14  1  0
 14 15  2  0
 14 16  1  0
 16 17  1  0
 17 18  1  0
 16 19  1  0
 19 20  1  0
 20 21  2  0
 20 22  1  0
 13 23  1  0
 23 24  2  0
 24 25  1  0
 25 26  2  0
 26 27  1  0
 27 28  2  0
 28 29  1  0
  7 30  1  0
 30  3  1  0
 28  6  1  0
 29 11  2  0
 29 24  1  0
  1 31  1  0
  1 32  1  0
  1 33  1  0
  2 34  1  0
  2 35  1  0
  5 36  1  0
  5 37  1  0
  5 38  1  0
  9 39  1  0
  9 40  1  0
 10 41  1  0
 17 42  1  0
 17 43  1  0
 18 44  1  0
 18 45  1  0
 18 46  1  0
 19 47  1  0
 19 48  1  0
 22 49  1  0
 23 50  1  0
 25 51  1  0
 26 52  1  0
 27 53  1  0
 30 54  1  0
 30 55  1  0
M  END
>  <smiles>
CCC1=C(C)N2C(=C(CO)c3nc(C(=O)N(CC)CC(=O)O)cc4cccc2c34)C1

$$$$
