mol_362bc602a9d1
     RDKit          3D

 60 65  0  0  0  0  0  0  0  0999 V2000
    3.8348   -1.6245   -1.8805 O   0  0  0  0  0  0  0  0  0  0  0  0
    4.1948   -0.4648   -1.6961 C   0  0  0  0  0  0  0  0  0  0  0  0
    3.4149    0.7109   -2.3045 C   0  0  0  0  0  0  0  0  0  0  0  0
    2.2408    1.1287   -1.5161 N   0  0  0  0  0  0  0  0  0  0  0  0
    2.5617    1.5790   -0.1587 C   0  0  0  0  0  0  0  0  0  0  0  0
    1.3495    2.2875    0.4648 C   0  0  0  0  0  0  0  0  0  0  0  0
    0.0667    1.5162    0.2857 C   0  0  0  0  0  0  0  0  0  0  0  0
   -1.0709    1.8525    1.0222 C   0  0  0  0  0  0  0  0  0  0  0  0
   -2.2953    1.1747    0.8342 C   0  0  0  0  0  0  0  0  0  0  0  0
   -2.3765    0.0882   -0.0621 C   0  0  0  0  0  0  0  0  0  0  0  0
   -1.2201   -0.2140   -0.8115 C   0  0  0  0  0  0  0  0  0  0  0  0
   -0.0136    0.4947   -0.6636 C   0  0  0  0  0  0  0  0  0  0  0  0
    1.2031    0.0824   -1.4697 C   0  0  0  0  0  0  0  0  0  0  0  0
   -3.5932   -0.6539   -0.1756 N   0  0  0  0  0  0  0  0  0  0  0  0
   -3.5466   -1.8258   -1.0719 C   0  0  0  0  0  0  0  0  0  0  0  0
   -4.7887   -2.7016   -0.9911 C   0  0  0  0  0  0  0  0  0  0  0  0
   -6.0288   -1.8388   -1.0810 C   0  0  0  0  0  0  0  0  0  0  0  0
   -6.0826   -0.9154    0.1272 C   0  0  0  0  0  0  0  0  0  0  0  0
   -4.7733   -0.2077    0.4494 C   0  0  0  0  0  0  0  0  0  0  0  0
   -4.7719    0.8391    1.3045 C   0  0  0  0  0  0  0  0  0  0  0  0
   -5.9451    1.3986    1.9546 C   0  0  0  0  0  0  0  0  0  0  0  0
   -5.9574    2.6951    2.2966 C   0  0  0  0  0  0  0  0  0  0  0  0
   -4.9484    3.5826    2.0181 N   0  0  0  0  0  0  0  0  0  0  0  0
   -3.8102    3.0539    1.6622 C   0  0  0  0  0  0  0  0  0  0  0  0
   -3.4978    1.5606    1.6705 C   0  0  0  0  0  0  0  0  0  0  0  0
    5.2850   -0.0509   -0.9453 N   0  0  0  0  0  0  0  0  0  0  0  0
    6.2007   -0.8564   -0.2381 C   0  0  0  0  0  0  0  0  0  0  0  0
    6.1426   -2.2500   -0.1896 C   0  0  0  0  0  0  0  0  0  0  0  0
    7.0921   -2.9743    0.5391 C   0  0  0  0  0  0  0  0  0  0  0  0
    8.1070   -2.3117    1.2249 C   0  0  0  0  0  0  0  0  0  0  0  0
    8.1745   -0.9223    1.1832 C   0  0  0  0  0  0  0  0  0  0  0  0
    7.2260   -0.1988    0.4554 C   0  0  0  0  0  0  0  0  0  0  0  0
    4.0832    1.5699   -2.4403 H   0  0  0  0  0  0  0  0  0  0  0  0
    3.1051    0.4205   -3.3161 H   0  0  0  0  0  0  0  0  0  0  0  0
    2.8640    0.7358    0.4765 H   0  0  0  0  0  0  0  0  0  0  0  0
    3.3964    2.2902   -0.1755 H   0  0  0  0  0  0  0  0  0  0  0  0
    1.2227    3.2718   -0.0037 H   0  0  0  0  0  0  0  0  0  0  0  0
    1.5430    2.4459    1.5324 H   0  0  0  0  0  0  0  0  0  0  0  0
   -0.9974    2.6505    1.7587 H   0  0  0  0  0  0  0  0  0  0  0  0
   -1.2241   -1.0173   -1.5420 H   0  0  0  0  0  0  0  0  0  0  0  0
    1.5839   -0.8432   -1.0223 H   0  0  0  0  0  0  0  0  0  0  0  0
    0.8805   -0.1370   -2.4950 H   0  0  0  0  0  0  0  0  0  0  0  0
   -2.6923   -2.4682   -0.8239 H   0  0  0  0  0  0  0  0  0  0  0  0
   -3.4318   -1.4812   -2.1080 H   0  0  0  0  0  0  0  0  0  0  0  0
   -4.7761   -3.4349   -1.8051 H   0  0  0  0  0  0  0  0  0  0  0  0
   -4.7912   -3.2658   -0.0500 H   0  0  0  0  0  0  0  0  0  0  0  0
   -6.0176   -1.2519   -2.0077 H   0  0  0  0  0  0  0  0  0  0  0  0
   -6.9267   -2.4663   -1.1070 H   0  0  0  0  0  0  0  0  0  0  0  0
   -6.3698   -1.5114    1.0039 H   0  0  0  0  0  0  0  0  0  0  0  0
   -6.8841   -0.1880   -0.0498 H   0  0  0  0  0  0  0  0  0  0  0  0
   -6.8189    0.7821    2.1307 H   0  0  0  0  0  0  0  0  0  0  0  0
   -6.8411    3.1233    2.7637 H   0  0  0  0  0  0  0  0  0  0  0  0
   -2.9961    3.7527    1.4139 H   0  0  0  0  0  0  0  0  0  0  0  0
   -3.2431    1.3051    2.7100 H   0  0  0  0  0  0  0  0  0  0  0  0
    5.4423    0.9470   -0.8880 H   0  0  0  0  0  0  0  0  0  0  0  0
    5.3700   -2.8093   -0.7074 H   0  0  0  0  0  0  0  0  0  0  0  0
    7.0339   -4.0596    0.5679 H   0  0  0  0  0  0  0  0  0  0  0  0
    8.8425   -2.8786    1.7896 H   0  0  0  0  0  0  0  0  0  0  0  0
    8.9651   -0.4010    1.7166 H   0  0  0  0  0  0  0  0  0  0  0  0
    7.3038    0.8850    0.4405 H   0  0  0  0  0  0  0  0  0  0  0  0
  1  2  2  0
  2  3  1  0
  3  4  1  0
  4  5  1  0
  5  6  1  0
  6  7  1  0
  7  8  1  0
  8  9  2  0
  9 10  1  0
 10 11  2  0
 11 12  1  0
 12 13  1  0
 10 14  1  0
 14 15  1  0
 15 16  1  0
 16 17  1  0
 17 18  1  0
 18 19  1  0
 19 20  2  0
 20 21  1  0
 21 22  2  0
 22 23  1  0
 23 24  2  0
 24 25  1  0
  2 26  1  0
 26 27  1  0
 27 28  2  0
 28 29  1  0
 29 30  2  0
 30 31  1  0
 31 32  2  0
 13  4  1  0
 19 14  1  0
 25 20  1  0
 32 27  1  0
 12  7  2  0
 25  9  1  0
  3 33  1  0
  3 34  1  0
  5 35  1  0
  5 36  1  0
  6 37  1  0
  6 38  1  0
  8 39  1  0
 11 40  1  0
 13 41  1  0
 13 42  1  0
 15 43  1  0
 15 44  1  0
 16 45  1  0
 16 46  1  0
 17 47  1  0
 17 48  1  0
 18 49  1  0
 18 50  1  0
 21 51  1  0
 22 52  1  0
 24 53  1  0
 25 54  1  0
 26 55  1  0
 28 56  1  0
 29 57  1  0
 30 58  1  0
 31 59  1  0
 32 60  1  0
M  END
>  <smiles>
O=C(CN1CCc2cc3c(cc2C1)N1CCCCC1=C1C=CN=CC13)Nc1ccccc1

$$$$
