mol_21fdc7e715ca
     RDKit          3D

 50 53  0  0  0  0  0  0  0  0999 V2000
   -4.2936    2.3382   -0.6847 C   0  0  0  0  0  0  0  0  0  0  0  0
   -4.4659    0.9288   -0.1147 C   0  0  0  0  0  0  0  0  0  0  0  0
   -5.3766    0.9603    1.1110 C   0  0  0  0  0  0  0  0  0  0  0  0
   -3.1119    0.2976    0.2397 C   0  0  0  0  0  0  0  0  0  0  0  0
   -2.3316    0.1726   -0.9616 O   0  0  0  0  0  0  0  0  0  0  0  0
   -1.1105   -0.4028   -0.6802 C   0  0  0  0  0  0  0  0  0  0  0  0
   -0.0173    0.4380   -0.4144 C   0  0  0  0  0  0  0  0  0  0  0  0
    1.2427   -0.1220   -0.1182 C   0  0  0  0  0  0  0  0  0  0  0  0
    1.3934   -1.5180   -0.1551 C   0  0  0  0  0  0  0  0  0  0  0  0
    0.2852   -2.3771   -0.4392 C   0  0  0  0  0  0  0  0  0  0  0  0
    0.3841   -3.7911   -0.4588 C   0  0  0  0  0  0  0  0  0  0  0  0
   -0.7028   -4.6101   -0.7721 C   0  0  0  0  0  0  0  0  0  0  0  0
   -1.9256   -4.0398   -1.0811 C   0  0  0  0  0  0  0  0  0  0  0  0
   -2.0582   -2.6536   -1.0595 C   0  0  0  0  0  0  0  0  0  0  0  0
   -0.9763   -1.8060   -0.7248 C   0  0  0  0  0  0  0  0  0  0  0  0
    2.7518   -2.1081    0.1097 C   0  0  0  0  0  0  0  0  0  0  0  0
    3.9232   -1.1620    0.1268 C   0  0  0  0  0  0  0  0  0  0  0  0
    5.0672   -1.6258    0.0626 O   0  0  0  0  0  0  0  0  0  0  0  0
    3.6795    0.1966    0.2902 N   0  0  0  0  0  0  0  0  0  0  0  0
    4.8823    1.0284    0.4475 C   0  0  0  0  0  0  0  0  0  0  0  0
    5.4052    1.5191   -0.8933 C   0  0  0  0  0  0  0  0  0  0  0  0
    4.7867    1.6530   -1.9371 O   0  0  0  0  0  0  0  0  0  0  0  0
    6.6995    1.9040   -0.8280 O   0  0  0  0  0  0  0  0  0  0  0  0
    2.4025    0.7528    0.2142 C   0  0  0  0  0  0  0  0  0  0  0  0
    2.1547    2.0569    0.4495 C   0  0  0  0  0  0  0  0  0  0  0  0
    0.7919    2.6767    0.3840 C   0  0  0  0  0  0  0  0  0  0  0  0
   -0.1419    1.9347   -0.5597 C   0  0  0  0  0  0  0  0  0  0  0  0
   -5.2657    2.7772   -0.9332 H   0  0  0  0  0  0  0  0  0  0  0  0
   -3.7984    2.9990    0.0350 H   0  0  0  0  0  0  0  0  0  0  0  0
   -3.6940    2.3246   -1.6006 H   0  0  0  0  0  0  0  0  0  0  0  0
   -4.9424    0.3164   -0.8909 H   0  0  0  0  0  0  0  0  0  0  0  0
   -6.3551    1.3821    0.8582 H   0  0  0  0  0  0  0  0  0  0  0  0
   -4.9430    1.5669    1.9133 H   0  0  0  0  0  0  0  0  0  0  0  0
   -5.5397   -0.0502    1.5003 H   0  0  0  0  0  0  0  0  0  0  0  0
   -2.5861    0.9220    0.9736 H   0  0  0  0  0  0  0  0  0  0  0  0
   -3.2788   -0.6911    0.6852 H   0  0  0  0  0  0  0  0  0  0  0  0
    1.3242   -4.2878   -0.2297 H   0  0  0  0  0  0  0  0  0  0  0  0
   -0.5849   -5.6905   -0.7823 H   0  0  0  0  0  0  0  0  0  0  0  0
   -2.7748   -4.6656   -1.3407 H   0  0  0  0  0  0  0  0  0  0  0  0
   -3.0254   -2.2263   -1.3178 H   0  0  0  0  0  0  0  0  0  0  0  0
    2.9820   -2.8390   -0.6755 H   0  0  0  0  0  0  0  0  0  0  0  0
    2.7354   -2.6178    1.0805 H   0  0  0  0  0  0  0  0  0  0  0  0
    5.6753    0.4325    0.9154 H   0  0  0  0  0  0  0  0  0  0  0  0
    4.7083    1.8745    1.1159 H   0  0  0  0  0  0  0  0  0  0  0  0
    6.9054    2.1792   -1.7465 H   0  0  0  0  0  0  0  0  0  0  0  0
    2.9320    2.7603    0.7193 H   0  0  0  0  0  0  0  0  0  0  0  0
    0.8768    3.7181    0.0523 H   0  0  0  0  0  0  0  0  0  0  0  0
    0.3737    2.6986    1.3981 H   0  0  0  0  0  0  0  0  0  0  0  0
    0.0990    2.1911   -1.5998 H   0  0  0  0  0  0  0  0  0  0  0  0
   -1.1614    2.2847   -0.3732 H   0  0  0  0  0  0  0  0  0  0  0  0
  1  2  1  0
  2  3  1  0
  2  4  1  0
  4  5  1  0
  5  6  1  0
  6  7  2  0
  7  8  1  0
  8  9  2  0
  9 10  1  0
 10 11  2  0
 11 12  1  0
 12 13  2  0
 13 14  1  0
 14 15  2  0
  9 16  1  0
 16 17  1  0
 17 18  2  0
 17 19  1  0
 19 20  1  0
 20 21  1  0
 21 22  2  0
 21 23  1  0
 19 24  1  0
 24 25  2  0
 25 26  1  0
 26 27  1  0
 15  6  1  0
 27  7  1  0
 24  8  1  0
 15 10  1  0
  1 28  1  0
  1 29  1  0
  1 30  1  0
  2 31  1  0
  3 32  1  0
  3 33  1  0
  3 34  1  0
  4 35  1  0
  4 36  1  0
 11 37  1  0
 12 38  1  0
 13 39  1  0
 14 40  1  0
 16 41  1  0
 16 42  1  0
 20 43  1  0
 20 44  1  0
 23 45  1  0
 25 46  1  0
 26 47  1  0
 26 48  1  0
 27 49  1  0
 27 50  1  0
M  END
>  <smiles>
CC(C)COc1c2c3c(c4ccccc14)CC(=O)N(CC(=O)O)C3=CCC2

$$$$
