mol_83dc55f6f4c1
     RDKit          3D

 57 61  0  0  0  0  0  0  0  0999 V2000
   -4.7204   -2.8633   -1.0834 C   0  0  0  0  0  0  0  0  0  0  0  0
   -3.5939   -2.2902   -0.2728 C   0  0  0  0  0  0  0  0  0  0  0  0
   -2.5563   -3.1228    0.1786 C   0  0  0  0  0  0  0  0  0  0  0  0
   -1.5107   -2.6070    0.9499 C   0  0  0  0  0  0  0  0  0  0  0  0
   -1.5715   -1.2668    1.3335 C   0  0  0  0  0  0  0  0  0  0  0  0
   -2.5558   -0.3973    0.8361 C   0  0  0  0  0  0  0  0  0  0  0  0
   -3.5790   -0.9233    0.0471 C   0  0  0  0  0  0  0  0  0  0  0  0
   -2.3297    1.0770    1.0604 C   0  0  0  0  0  0  0  0  0  0  0  0
   -3.5325    1.9843    1.3628 C   0  0  0  0  0  0  0  0  0  0  0  0
   -3.2030    3.4651    1.0786 C   0  0  0  0  0  0  0  0  0  0  0  0
   -1.7052    3.7981    1.1785 C   0  0  0  0  0  0  0  0  0  0  0  0
   -0.8365    2.8626    0.4464 N   0  0  0  0  0  0  0  0  0  0  0  0
   -1.5203    1.6921   -0.0978 C   0  0  0  0  0  0  0  0  0  0  0  0
    0.5385    3.1120    0.4915 C   0  0  0  0  0  0  0  0  0  0  0  0
    0.9692    4.1454    1.0118 O   0  0  0  0  0  0  0  0  0  0  0  0
    1.5674    2.1843   -0.0792 C   0  0  0  0  0  0  0  0  0  0  0  0
    2.7011    2.7760   -0.6332 C   0  0  0  0  0  0  0  0  0  0  0  0
    3.7650    1.9944   -1.0934 C   0  0  0  0  0  0  0  0  0  0  0  0
    3.7355    0.5796   -1.0508 C   0  0  0  0  0  0  0  0  0  0  0  0
    4.7969   -0.2446   -1.5036 C   0  0  0  0  0  0  0  0  0  0  0  0
    6.0914    0.2875   -1.9928 C   0  0  0  0  0  0  0  0  0  0  0  0
    6.6166    1.3433   -1.6988 O   0  0  0  0  0  0  0  0  0  0  0  0
    6.6814   -0.5474   -2.8698 O   0  0  0  0  0  0  0  0  0  0  0  0
    4.6383   -1.6221   -1.4556 C   0  0  0  0  0  0  0  0  0  0  0  0
    3.5162   -2.2409   -1.0372 N   0  0  0  0  0  0  0  0  0  0  0  0
    2.4906   -1.4610   -0.6153 C   0  0  0  0  0  0  0  0  0  0  0  0
    2.5649   -0.0415   -0.5408 C   0  0  0  0  0  0  0  0  0  0  0  0
    1.5361    0.7864   -0.0001 C   0  0  0  0  0  0  0  0  0  0  0  0
    1.2098   -2.2303   -0.3684 C   0  0  0  0  0  0  0  0  0  0  0  0
    1.0504   -2.7347    1.0699 C   0  0  0  0  0  0  0  0  0  0  0  0
   -0.3026   -3.4451    1.3058 C   0  0  0  0  0  0  0  0  0  0  0  0
   -5.1221   -2.1178   -1.7776 H   0  0  0  0  0  0  0  0  0  0  0  0
   -4.3781   -3.7130   -1.6834 H   0  0  0  0  0  0  0  0  0  0  0  0
   -5.5237   -3.1987   -0.4203 H   0  0  0  0  0  0  0  0  0  0  0  0
   -2.5520   -4.1743   -0.1026 H   0  0  0  0  0  0  0  0  0  0  0  0
   -0.7869   -0.8645    1.9719 H   0  0  0  0  0  0  0  0  0  0  0  0
   -4.3557   -0.2756   -0.3517 H   0  0  0  0  0  0  0  0  0  0  0  0
   -1.7077    1.1422    1.9683 H   0  0  0  0  0  0  0  0  0  0  0  0
   -4.4161    1.7075    0.7777 H   0  0  0  0  0  0  0  0  0  0  0  0
   -3.8159    1.8629    2.4159 H   0  0  0  0  0  0  0  0  0  0  0  0
   -3.7792    4.1110    1.7507 H   0  0  0  0  0  0  0  0  0  0  0  0
   -3.5423    3.7035    0.0618 H   0  0  0  0  0  0  0  0  0  0  0  0
   -1.5185    4.8116    0.8049 H   0  0  0  0  0  0  0  0  0  0  0  0
   -1.3941    3.7772    2.2306 H   0  0  0  0  0  0  0  0  0  0  0  0
   -2.1800    2.0292   -0.9082 H   0  0  0  0  0  0  0  0  0  0  0  0
   -0.8378    0.9931   -0.5726 H   0  0  0  0  0  0  0  0  0  0  0  0
    2.7839    3.8614   -0.6824 H   0  0  0  0  0  0  0  0  0  0  0  0
    4.6254    2.5289   -1.4926 H   0  0  0  0  0  0  0  0  0  0  0  0
    7.5041   -0.0790   -3.1285 H   0  0  0  0  0  0  0  0  0  0  0  0
    5.4279   -2.3003   -1.7698 H   0  0  0  0  0  0  0  0  0  0  0  0
    0.7192    0.3120    0.5291 H   0  0  0  0  0  0  0  0  0  0  0  0
    0.3637   -1.6157   -0.6910 H   0  0  0  0  0  0  0  0  0  0  0  0
    1.1958   -3.0975   -1.0431 H   0  0  0  0  0  0  0  0  0  0  0  0
    1.1723   -1.9049    1.7760 H   0  0  0  0  0  0  0  0  0  0  0  0
    1.8587   -3.4406    1.3006 H   0  0  0  0  0  0  0  0  0  0  0  0
   -0.3800   -3.7367    2.3601 H   0  0  0  0  0  0  0  0  0  0  0  0
   -0.3126   -4.3719    0.7185 H   0  0  0  0  0  0  0  0  0  0  0  0
  1  2  1  0
  2  3  2  0
  3  4  1  0
  4  5  2  0
  5  6  1  0
  6  7  2  0
  6  8  1  0
  8  9  1  0
  9 10  1  0
 10 11  1  0
 11 12  1  0
 12 13  1  0
 12 14  1  0
 14 15  2  0
 14 16  1  0
 16 17  1  0
 17 18  2  0
 18 19  1  0
 19 20  2  0
 20 21  1  0
 21 22  2  0
 21 23  1  0
 20 24  1  0
 24 25  2  0
 25 26  1  0
 26 27  2  0
 27 28  1  0
 26 29  1  0
 29 30  1  0
 30 31  1  0
  7  2  1  0
 13  8  1  0
 28 16  2  0
 31  4  1  0
 27 19  1  0
  1 32  1  0
  1 33  1  0
  1 34  1  0
  3 35  1  0
  5 36  1  0
  7 37  1  0
  8 38  1  0
  9 39  1  0
  9 40  1  0
 10 41  1  0
 10 42  1  0
 11 43  1  0
 11 44  1  0
 13 45  1  0
 13 46  1  0
 17 47  1  0
 18 48  1  0
 23 49  1  0
 24 50  1  0
 28 51  1  0
 29 52  1  0
 29 53  1  0
 30 54  1  0
 30 55  1  0
 31 56  1  0
 31 57  1  0
M  END
>  <smiles>
Cc1cc2cc(c1)C1CCCN(C1)C(=O)c1ccc3c(C(=O)O)cnc(c3c1)CCC2

$$$$
