mol_bd0e59858993
     RDKit          3D

 58 61  0  0  0  0  0  0  0  0999 V2000
    9.6672    0.7974   -0.0946 C   0  0  0  0  0  0  0  0  0  0  0  0
    8.2264    0.4511   -0.3195 C   0  0  0  0  0  0  0  0  0  0  0  0
    7.7998   -0.0808   -1.5315 C   0  0  0  0  0  0  0  0  0  0  0  0
    6.4471   -0.3653   -1.7290 C   0  0  0  0  0  0  0  0  0  0  0  0
    5.4789   -0.1139   -0.7249 C   0  0  0  0  0  0  0  0  0  0  0  0
    4.0841   -0.3760   -0.8675 C   0  0  0  0  0  0  0  0  0  0  0  0
    3.5737   -0.9497   -2.1695 C   0  0  0  0  0  0  0  0  0  0  0  0
    3.2167   -0.1286    0.2239 C   0  0  0  0  0  0  0  0  0  0  0  0
    1.7304   -0.4101    0.1544 C   0  0  0  0  0  0  0  0  0  0  0  0
    0.9485    0.7751   -0.4214 C   0  0  0  0  0  0  0  0  0  0  0  0
   -0.4728    0.5121   -0.4879 N   0  0  0  0  0  0  0  0  0  0  0  0
   -1.2772    0.5590    0.6332 C   0  0  0  0  0  0  0  0  0  0  0  0
   -0.8938    0.8124    1.7630 O   0  0  0  0  0  0  0  0  0  0  0  0
   -2.7499    0.3058    0.3388 C   0  0  0  0  0  0  0  0  0  0  0  0
   -3.2169    0.8433   -0.7618 N   0  0  0  0  0  0  0  0  0  0  0  0
   -4.5525    0.6645   -1.0165 C   0  0  0  0  0  0  0  0  0  0  0  0
   -5.4100   -0.0126   -0.2335 C   0  0  0  0  0  0  0  0  0  0  0  0
   -6.8216   -0.0974   -0.6396 C   0  0  0  0  0  0  0  0  0  0  0  0
   -7.2646   -1.1560   -1.4436 C   0  0  0  0  0  0  0  0  0  0  0  0
   -8.6022   -1.2284   -1.8362 C   0  0  0  0  0  0  0  0  0  0  0  0
   -9.5023   -0.2430   -1.4324 C   0  0  0  0  0  0  0  0  0  0  0  0
   -9.0679    0.8167   -0.6371 C   0  0  0  0  0  0  0  0  0  0  0  0
   -7.7309    0.8919   -0.2427 C   0  0  0  0  0  0  0  0  0  0  0  0
   -4.9580   -0.6251    0.9250 N   0  0  0  0  0  0  0  0  0  0  0  0
   -5.8543   -1.3858    1.7823 C   0  0  0  0  0  0  0  0  0  0  0  0
   -3.6065   -0.5478    1.2675 C   0  0  0  0  0  0  0  0  0  0  0  0
   -3.0841   -1.1309    2.2074 O   0  0  0  0  0  0  0  0  0  0  0  0
    3.7748    0.4220    1.3878 C   0  0  0  0  0  0  0  0  0  0  0  0
    2.9525    0.7389    2.6069 C   0  0  0  0  0  0  0  0  0  0  0  0
    5.0939    0.6977    1.5130 N   0  0  0  0  0  0  0  0  0  0  0  0
    5.9207    0.4307    0.4962 C   0  0  0  0  0  0  0  0  0  0  0  0
    7.2711    0.7083    0.6718 C   0  0  0  0  0  0  0  0  0  0  0  0
    9.9393    0.6694    0.9584 H   0  0  0  0  0  0  0  0  0  0  0  0
   10.3229    0.1446   -0.6805 H   0  0  0  0  0  0  0  0  0  0  0  0
    9.8524    1.8360   -0.3851 H   0  0  0  0  0  0  0  0  0  0  0  0
    8.5111   -0.2809   -2.3295 H   0  0  0  0  0  0  0  0  0  0  0  0
    6.1594   -0.7926   -2.6859 H   0  0  0  0  0  0  0  0  0  0  0  0
    3.8706   -1.9998   -2.2558 H   0  0  0  0  0  0  0  0  0  0  0  0
    3.9705   -0.3856   -3.0203 H   0  0  0  0  0  0  0  0  0  0  0  0
    2.4885   -0.8964   -2.2732 H   0  0  0  0  0  0  0  0  0  0  0  0
    1.5400   -1.3183   -0.4300 H   0  0  0  0  0  0  0  0  0  0  0  0
    1.3465   -0.6696    1.1477 H   0  0  0  0  0  0  0  0  0  0  0  0
    1.2786    1.0064   -1.4396 H   0  0  0  0  0  0  0  0  0  0  0  0
    1.1021    1.6748    0.1851 H   0  0  0  0  0  0  0  0  0  0  0  0
   -0.9353    0.4139   -1.3866 H   0  0  0  0  0  0  0  0  0  0  0  0
   -4.9078    1.1406   -1.9297 H   0  0  0  0  0  0  0  0  0  0  0  0
   -6.5715   -1.9303   -1.7653 H   0  0  0  0  0  0  0  0  0  0  0  0
   -8.9425   -2.0529   -2.4580 H   0  0  0  0  0  0  0  0  0  0  0  0
  -10.5439   -0.3001   -1.7392 H   0  0  0  0  0  0  0  0  0  0  0  0
   -9.7705    1.5853   -0.3247 H   0  0  0  0  0  0  0  0  0  0  0  0
   -7.4035    1.7236    0.3776 H   0  0  0  0  0  0  0  0  0  0  0  0
   -5.3388   -1.7629    2.6702 H   0  0  0  0  0  0  0  0  0  0  0  0
   -6.2469   -2.2432    1.2272 H   0  0  0  0  0  0  0  0  0  0  0  0
   -6.6757   -0.7446    2.1165 H   0  0  0  0  0  0  0  0  0  0  0  0
    2.1335    1.4199    2.3591 H   0  0  0  0  0  0  0  0  0  0  0  0
    3.5660    1.2293    3.3706 H   0  0  0  0  0  0  0  0  0  0  0  0
    2.5508   -0.1794    3.0456 H   0  0  0  0  0  0  0  0  0  0  0  0
    7.5837    1.1376    1.6221 H   0  0  0  0  0  0  0  0  0  0  0  0
  1  2  1  0
  2  3  2  0
  3  4  1  0
  4  5  2  0
  5  6  1  0
  6  7  1  0
  6  8  2  0
  8  9  1  0
  9 10  1  0
 10 11  1  0
 11 12  1  0
 12 13  2  0
 12 14  1  0
 14 15  2  0
 15 16  1  0
 16 17  2  0
 17 18  1  0
 18 19  2  0
 19 20  1  0
 20 21  2  0
 21 22  1  0
 22 23  2  0
 17 24  1  0
 24 25  1  0
 24 26  1  0
 26 27  2  0
  8 28  1  0
 28 29  1  0
 28 30  2  0
 30 31  1  0
 31 32  2  0
 32  2  1  0
 31  5  1  0
 26 14  1  0
 23 18  1  0
  1 33  1  0
  1 34  1  0
  1 35  1  0
  3 36  1  0
  4 37  1  0
  7 38  1  0
  7 39  1  0
  7 40  1  0
  9 41  1  0
  9 42  1  0
 10 43  1  0
 10 44  1  0
 11 45  1  0
 16 46  1  0
 19 47  1  0
 20 48  1  0
 21 49  1  0
 22 50  1  0
 23 51  1  0
 25 52  1  0
 25 53  1  0
 25 54  1  0
 29 55  1  0
 29 56  1  0
 29 57  1  0
 32 58  1  0
M  END
>  <smiles>
Cc1ccc2c(C)c(CCNC(=O)c3ncc(-c4ccccc4)n(C)c3=O)c(C)nc2c1

$$$$
