mol_6860e18f8aca
     RDKit          3D

 54 57  0  0  0  0  0  0  0  0999 V2000
    5.4118   -1.0041   -3.0993 C   0  0  0  0  0  0  0  0  0  0  0  0
    4.0573   -0.6980   -2.7916 O   0  0  0  0  0  0  0  0  0  0  0  0
    3.7995   -0.2035   -1.5420 C   0  0  0  0  0  0  0  0  0  0  0  0
    2.4518    0.0657   -1.2935 C   0  0  0  0  0  0  0  0  0  0  0  0
    2.0484    0.5695   -0.0535 C   0  0  0  0  0  0  0  0  0  0  0  0
    0.6242    0.8736    0.2579 C   0  0  0  0  0  0  0  0  0  0  0  0
    0.3391    1.6830    1.1345 O   0  0  0  0  0  0  0  0  0  0  0  0
   -0.3297    0.1906   -0.4553 N   0  0  0  0  0  0  0  0  0  0  0  0
   -1.7427    0.4234   -0.2325 C   0  0  0  0  0  0  0  0  0  0  0  0
   -2.5755   -0.4673   -1.1581 C   0  0  0  0  0  0  0  0  0  0  0  0
   -2.0367   -1.2474   -1.9483 O   0  0  0  0  0  0  0  0  0  0  0  0
   -3.9450   -0.3517   -1.0555 N   0  0  0  0  0  0  0  0  0  0  0  0
   -4.8344   -1.1424   -1.8820 C   0  0  0  0  0  0  0  0  0  0  0  0
   -6.2015   -1.0086   -1.2301 C   0  0  0  0  0  0  0  0  0  0  0  0
   -6.4945   -2.0462   -0.1350 C   0  0  0  0  0  0  0  0  0  0  0  0
   -6.7598   -1.2654    1.1504 C   0  0  0  0  0  0  0  0  0  0  0  0
   -7.0435    0.1607    0.7005 C   0  0  0  0  0  0  0  0  0  0  0  0
   -6.1523    0.3488   -0.5176 C   0  0  0  0  0  0  0  0  0  0  0  0
   -4.6713    0.5607   -0.1886 C   0  0  0  0  0  0  0  0  0  0  0  0
    3.0099    0.8265    0.9330 C   0  0  0  0  0  0  0  0  0  0  0  0
    4.3701    0.5644    0.7055 C   0  0  0  0  0  0  0  0  0  0  0  0
    5.3755    0.8284    1.7486 C   0  0  0  0  0  0  0  0  0  0  0  0
    6.4961    1.6345    1.4868 C   0  0  0  0  0  0  0  0  0  0  0  0
    7.4516    1.8840    2.4758 C   0  0  0  0  0  0  0  0  0  0  0  0
    7.3023    1.3305    3.7448 C   0  0  0  0  0  0  0  0  0  0  0  0
    6.1984    0.5297    4.0258 C   0  0  0  0  0  0  0  0  0  0  0  0
    5.2433    0.2818    3.0361 C   0  0  0  0  0  0  0  0  0  0  0  0
    4.7476    0.0417   -0.5454 C   0  0  0  0  0  0  0  0  0  0  0  0
    6.0376   -0.1063   -3.0612 H   0  0  0  0  0  0  0  0  0  0  0  0
    5.4431   -1.3882   -4.1235 H   0  0  0  0  0  0  0  0  0  0  0  0
    5.7997   -1.7862   -2.4384 H   0  0  0  0  0  0  0  0  0  0  0  0
    1.7361   -0.1045   -2.0926 H   0  0  0  0  0  0  0  0  0  0  0  0
   -0.0941   -0.5364   -1.1227 H   0  0  0  0  0  0  0  0  0  0  0  0
   -1.9554    1.4775   -0.4344 H   0  0  0  0  0  0  0  0  0  0  0  0
   -1.9723    0.1929    0.8123 H   0  0  0  0  0  0  0  0  0  0  0  0
   -4.8333   -0.6890   -2.8800 H   0  0  0  0  0  0  0  0  0  0  0  0
   -4.4829   -2.1749   -1.9720 H   0  0  0  0  0  0  0  0  0  0  0  0
   -6.9977   -1.0479   -1.9824 H   0  0  0  0  0  0  0  0  0  0  0  0
   -7.3875   -2.6202   -0.4098 H   0  0  0  0  0  0  0  0  0  0  0  0
   -5.6824   -2.7675    0.0041 H   0  0  0  0  0  0  0  0  0  0  0  0
   -7.5898   -1.6880    1.7248 H   0  0  0  0  0  0  0  0  0  0  0  0
   -5.8707   -1.2928    1.7909 H   0  0  0  0  0  0  0  0  0  0  0  0
   -8.0965    0.2511    0.4078 H   0  0  0  0  0  0  0  0  0  0  0  0
   -6.8467    0.8911    1.4909 H   0  0  0  0  0  0  0  0  0  0  0  0
   -6.5118    1.1565   -1.1649 H   0  0  0  0  0  0  0  0  0  0  0  0
   -4.4150    0.3365    0.8516 H   0  0  0  0  0  0  0  0  0  0  0  0
   -4.3600    1.5890   -0.3993 H   0  0  0  0  0  0  0  0  0  0  0  0
    2.6923    1.2443    1.8881 H   0  0  0  0  0  0  0  0  0  0  0  0
    6.6256    2.0893    0.5068 H   0  0  0  0  0  0  0  0  0  0  0  0
    8.3086    2.5148    2.2550 H   0  0  0  0  0  0  0  0  0  0  0  0
    8.0438    1.5254    4.5150 H   0  0  0  0  0  0  0  0  0  0  0  0
    6.0780    0.0964    5.0153 H   0  0  0  0  0  0  0  0  0  0  0  0
    4.3925   -0.3530    3.2762 H   0  0  0  0  0  0  0  0  0  0  0  0
    5.7990   -0.1725   -0.7142 H   0  0  0  0  0  0  0  0  0  0  0  0
  1  2  1  0
  2  3  1  0
  3  4  2  0
  4  5  1  0
  5  6  1  0
  6  7  2  0
  6  8  1  0
  8  9  1  0
  9 10  1  0
 10 11  2  0
 10 12  1  0
 12 13  1  0
 13 14  1  0
 14 15  1  0
 15 16  1  0
 16 17  1  0
 17 18  1  0
 18 19  1  0
  5 20  2  0
 20 21  1  0
 21 22  1  0
 22 23  2  0
 23 24  1  0
 24 25  2  0
 25 26  1  0
 26 27  2  0
 21 28  2  0
 28  3  1  0
 19 12  1  0
 27 22  1  0
 18 14  1  0
  1 29  1  0
  1 30  1  0
  1 31  1  0
  4 32  1  0
  8 33  1  0
  9 34  1  0
  9 35  1  0
 13 36  1  0
 13 37  1  0
 14 38  1  0
 15 39  1  0
 15 40  1  0
 16 41  1  0
 16 42  1  0
 17 43  1  0
 17 44  1  0
 18 45  1  0
 19 46  1  0
 19 47  1  0
 20 48  1  0
 23 49  1  0
 24 50  1  0
 25 51  1  0
 26 52  1  0
 27 53  1  0
 28 54  1  0
M  END
>  <smiles>
COc1cc(C(=O)NCC(=O)N2CC3CCCC3C2)cc(-c2ccccc2)c1

$$$$
