mol_8f727db8d2f9
     RDKit          3D

 63 66  0  0  0  0  0  0  0  0999 V2000
   -0.9198   -3.0288    1.4144 C   0  0  0  0  0  0  0  0  0  0  0  0
   -0.3035   -1.6533    1.0972 C   0  0  0  0  0  0  0  0  0  0  0  0
   -1.2983   -0.5147    1.4054 C   0  0  0  0  0  0  0  0  0  0  0  0
   -2.5859   -0.5429    0.5777 C   0  0  0  0  0  0  0  0  0  0  0  0
   -3.4836    0.6428    0.8844 C   0  0  0  0  0  0  0  0  0  0  0  0
   -3.2354    1.4761    1.7479 O   0  0  0  0  0  0  0  0  0  0  0  0
   -4.6132    0.6754    0.0949 N   0  0  0  0  0  0  0  0  0  0  0  0
   -5.6192    1.7153    0.2421 C   0  0  0  0  0  0  0  0  0  0  0  0
   -6.4956    1.8269   -1.0019 C   0  0  0  0  0  0  0  0  0  0  0  0
   -7.5529    0.7360   -0.8409 C   0  0  0  0  0  0  0  0  0  0  0  0
   -7.6042    0.4055    0.6508 C   0  0  0  0  0  0  0  0  0  0  0  0
   -6.6331    1.3673    1.3291 C   0  0  0  0  0  0  0  0  0  0  0  0
    0.2157   -1.6116   -0.3547 C   0  0  0  0  0  0  0  0  0  0  0  0
    1.6038   -2.2695   -0.3040 C   0  0  0  0  0  0  0  0  0  0  0  0
    2.5297   -1.5663   -1.3214 C   0  0  0  0  0  0  0  0  0  0  0  0
    2.4251   -1.8117   -2.5207 O   0  0  0  0  0  0  0  0  0  0  0  0
    3.3204   -0.5875   -0.7436 N   0  0  0  0  0  0  0  0  0  0  0  0
    4.2230    0.3149   -1.3573 C   0  0  0  0  0  0  0  0  0  0  0  0
    4.3932    0.3356   -2.7472 C   0  0  0  0  0  0  0  0  0  0  0  0
    5.2744    1.2303   -3.3479 C   0  0  0  0  0  0  0  0  0  0  0  0
    6.0009    2.1204   -2.5671 C   0  0  0  0  0  0  0  0  0  0  0  0
    5.8619    2.1300   -1.1740 C   0  0  0  0  0  0  0  0  0  0  0  0
    6.6144    3.0427   -0.4154 C   0  0  0  0  0  0  0  0  0  0  0  0
    6.5102    3.0846    0.9721 C   0  0  0  0  0  0  0  0  0  0  0  0
    5.6509    2.2110    1.6199 C   0  0  0  0  0  0  0  0  0  0  0  0
    4.8944    1.2972    0.8791 C   0  0  0  0  0  0  0  0  0  0  0  0
    4.9698    1.2246   -0.5385 C   0  0  0  0  0  0  0  0  0  0  0  0
    2.0123   -2.1240    1.0988 N   0  0  0  0  0  0  0  0  0  0  0  0
    3.0741   -2.7627    1.6669 C   0  0  0  0  0  0  0  0  0  0  0  0
    3.3952   -2.7406    2.8417 O   0  0  0  0  0  0  0  0  0  0  0  0
    3.8091   -3.4395    0.7731 O   0  0  0  0  0  0  0  0  0  0  0  0
    0.9975   -1.4648    1.8985 C   0  0  0  0  0  0  0  0  0  0  0  0
   -1.2975   -3.0586    2.4425 H   0  0  0  0  0  0  0  0  0  0  0  0
   -1.7519   -3.2608    0.7418 H   0  0  0  0  0  0  0  0  0  0  0  0
   -0.1896   -3.8390    1.3114 H   0  0  0  0  0  0  0  0  0  0  0  0
   -0.8016    0.4521    1.2452 H   0  0  0  0  0  0  0  0  0  0  0  0
   -1.5568   -0.5417    2.4726 H   0  0  0  0  0  0  0  0  0  0  0  0
   -3.1596   -1.4522    0.7868 H   0  0  0  0  0  0  0  0  0  0  0  0
   -2.3539   -0.5236   -0.4929 H   0  0  0  0  0  0  0  0  0  0  0  0
   -4.7751   -0.0737   -0.5658 H   0  0  0  0  0  0  0  0  0  0  0  0
   -5.1116    2.6611    0.4598 H   0  0  0  0  0  0  0  0  0  0  0  0
   -5.9371    1.7203   -1.9373 H   0  0  0  0  0  0  0  0  0  0  0  0
   -6.9905    2.8059   -1.0161 H   0  0  0  0  0  0  0  0  0  0  0  0
   -7.2752   -0.1573   -1.4118 H   0  0  0  0  0  0  0  0  0  0  0  0
   -8.5255    1.0727   -1.2146 H   0  0  0  0  0  0  0  0  0  0  0  0
   -8.6159    0.5041    1.0569 H   0  0  0  0  0  0  0  0  0  0  0  0
   -7.2862   -0.6314    0.8112 H   0  0  0  0  0  0  0  0  0  0  0  0
   -6.1828    0.9273    2.2244 H   0  0  0  0  0  0  0  0  0  0  0  0
   -7.1737    2.2722    1.6329 H   0  0  0  0  0  0  0  0  0  0  0  0
   -0.4439   -2.1311   -1.0586 H   0  0  0  0  0  0  0  0  0  0  0  0
    0.2947   -0.5717   -0.6989 H   0  0  0  0  0  0  0  0  0  0  0  0
    1.5607   -3.3378   -0.5448 H   0  0  0  0  0  0  0  0  0  0  0  0
    3.2458   -0.5494    0.2625 H   0  0  0  0  0  0  0  0  0  0  0  0
    3.8489   -0.3374   -3.4014 H   0  0  0  0  0  0  0  0  0  0  0  0
    5.3914    1.2304   -4.4286 H   0  0  0  0  0  0  0  0  0  0  0  0
    6.6826    2.8102   -3.0604 H   0  0  0  0  0  0  0  0  0  0  0  0
    7.2959    3.7353   -0.9059 H   0  0  0  0  0  0  0  0  0  0  0  0
    7.1003    3.7967    1.5425 H   0  0  0  0  0  0  0  0  0  0  0  0
    5.5652    2.2344    2.7034 H   0  0  0  0  0  0  0  0  0  0  0  0
    4.2453    0.6389    1.4477 H   0  0  0  0  0  0  0  0  0  0  0  0
    4.5297   -3.8265    1.3123 H   0  0  0  0  0  0  0  0  0  0  0  0
    1.2863   -0.4094    1.9680 H   0  0  0  0  0  0  0  0  0  0  0  0
    0.9505   -1.8789    2.9110 H   0  0  0  0  0  0  0  0  0  0  0  0
  1  2  1  0
  2  3  1  0
  3  4  1  0
  4  5  1  0
  5  6  2  0
  5  7  1  0
  7  8  1  0
  8  9  1  0
  9 10  1  0
 10 11  1  0
 11 12  1  0
  2 13  1  0
 13 14  1  0
 14 15  1  0
 15 16  2  0
 15 17  1  0
 17 18  1  0
 18 19  2  0
 19 20  1  0
 20 21  2  0
 21 22  1  0
 22 23  2  0
 23 24  1  0
 24 25  2  0
 25 26  1  0
 26 27  2  0
 14 28  1  0
 28 29  1  0
 29 30  2  0
 29 31  1  0
 28 32  1  0
 32  2  1  0
 12  8  1  0
 27 18  1  0
 27 22  1  0
  1 33  1  0
  1 34  1  0
  1 35  1  0
  3 36  1  0
  3 37  1  0
  4 38  1  0
  4 39  1  0
  7 40  1  0
  8 41  1  0
  9 42  1  0
  9 43  1  0
 10 44  1  0
 10 45  1  0
 11 46  1  0
 11 47  1  0
 12 48  1  0
 12 49  1  0
 13 50  1  0
 13 51  1  0
 14 52  1  0
 17 53  1  0
 19 54  1  0
 20 55  1  0
 21 56  1  0
 23 57  1  0
 24 58  1  0
 25 59  1  0
 26 60  1  0
 31 61  1  0
 32 62  1  0
 32 63  1  0
M  END
>  <smiles>
CC1(CCC(=O)NC2CCCC2)CC(C(=O)Nc2cccc3ccccc23)N(C(=O)O)C1

$$$$
