mol_3590606b9e36
     RDKit          3D

 53 55  0  0  0  0  0  0  0  0999 V2000
    7.2578   -0.0978   -0.5377 C   0  0  0  0  0  0  0  0  0  0  0  0
    5.8209    0.1787   -0.1142 C   0  0  0  0  0  0  0  0  0  0  0  0
    5.6987   -0.0789    1.2908 O   0  0  0  0  0  0  0  0  0  0  0  0
    4.8244   -0.6948   -0.8988 C   0  0  0  0  0  0  0  0  0  0  0  0
    3.4447   -0.2206   -0.7693 N   0  0  0  0  0  0  0  0  0  0  0  0
    2.7387   -0.4570    0.4816 C   0  0  0  0  0  0  0  0  0  0  0  0
    1.2291   -0.5404    0.2745 C   0  0  0  0  0  0  0  0  0  0  0  0
    0.7151    0.6676   -0.3656 N   0  0  0  0  0  0  0  0  0  0  0  0
   -0.5393    1.2372   -0.1564 C   0  0  0  0  0  0  0  0  0  0  0  0
   -0.8560    2.2598   -0.7697 O   0  0  0  0  0  0  0  0  0  0  0  0
   -1.4873    0.5943    0.8770 C   0  0  0  0  0  0  0  0  0  0  0  0
   -2.6960    1.4977    1.2379 C   0  0  0  0  0  0  0  0  0  0  0  0
   -3.8770    1.5172    0.2900 C   0  0  0  0  0  0  0  0  0  0  0  0
   -4.9243    0.5954    0.4398 C   0  0  0  0  0  0  0  0  0  0  0  0
   -6.0144    0.6065   -0.4323 C   0  0  0  0  0  0  0  0  0  0  0  0
   -6.0747    1.5429   -1.4612 C   0  0  0  0  0  0  0  0  0  0  0  0
   -5.0457    2.4686   -1.6168 C   0  0  0  0  0  0  0  0  0  0  0  0
   -3.9549    2.4573   -0.7451 C   0  0  0  0  0  0  0  0  0  0  0  0
   -1.9009   -0.8345    0.5415 C   0  0  0  0  0  0  0  0  0  0  0  0
   -2.1986   -1.2240   -0.7737 C   0  0  0  0  0  0  0  0  0  0  0  0
   -2.5830   -2.5354   -1.0561 C   0  0  0  0  0  0  0  0  0  0  0  0
   -2.6812   -3.4718   -0.0295 C   0  0  0  0  0  0  0  0  0  0  0  0
   -2.4025   -3.0967    1.2827 C   0  0  0  0  0  0  0  0  0  0  0  0
   -2.0193   -1.7855    1.5687 C   0  0  0  0  0  0  0  0  0  0  0  0
    1.5243    1.2299   -1.4513 C   0  0  0  0  0  0  0  0  0  0  0  0
    2.9425    0.6837   -1.6953 C   0  0  0  0  0  0  0  0  0  0  0  0
    3.6040    1.0632   -2.6637 O   0  0  0  0  0  0  0  0  0  0  0  0
    7.9538    0.4999    0.0606 H   0  0  0  0  0  0  0  0  0  0  0  0
    7.4127    0.1397   -1.5945 H   0  0  0  0  0  0  0  0  0  0  0  0
    7.5214   -1.1484   -0.3732 H   0  0  0  0  0  0  0  0  0  0  0  0
    5.5980    1.2402   -0.2686 H   0  0  0  0  0  0  0  0  0  0  0  0
    6.0894   -0.9512    1.4702 H   0  0  0  0  0  0  0  0  0  0  0  0
    5.0928   -0.6964   -1.9613 H   0  0  0  0  0  0  0  0  0  0  0  0
    4.8521   -1.7328   -0.5477 H   0  0  0  0  0  0  0  0  0  0  0  0
    3.0956   -1.3929    0.9241 H   0  0  0  0  0  0  0  0  0  0  0  0
    2.9816    0.3697    1.1591 H   0  0  0  0  0  0  0  0  0  0  0  0
    0.7526   -0.7077    1.2413 H   0  0  0  0  0  0  0  0  0  0  0  0
    0.9823   -1.3825   -0.3824 H   0  0  0  0  0  0  0  0  0  0  0  0
   -0.8840    0.5604    1.7964 H   0  0  0  0  0  0  0  0  0  0  0  0
   -2.3517    2.5300    1.3889 H   0  0  0  0  0  0  0  0  0  0  0  0
   -3.0749    1.1865    2.2223 H   0  0  0  0  0  0  0  0  0  0  0  0
   -4.8922   -0.1482    1.2330 H   0  0  0  0  0  0  0  0  0  0  0  0
   -6.8140   -0.1187   -0.3088 H   0  0  0  0  0  0  0  0  0  0  0  0
   -6.9219    1.5519   -2.1412 H   0  0  0  0  0  0  0  0  0  0  0  0
   -5.0883    3.2018   -2.4178 H   0  0  0  0  0  0  0  0  0  0  0  0
   -3.1632    3.1909   -0.8841 H   0  0  0  0  0  0  0  0  0  0  0  0
   -2.1536   -0.5035   -1.5894 H   0  0  0  0  0  0  0  0  0  0  0  0
   -2.8171   -2.8211   -2.0786 H   0  0  0  0  0  0  0  0  0  0  0  0
   -2.9863   -4.4909   -0.2521 H   0  0  0  0  0  0  0  0  0  0  0  0
   -2.4912   -3.8249    2.0848 H   0  0  0  0  0  0  0  0  0  0  0  0
   -1.8166   -1.5101    2.6014 H   0  0  0  0  0  0  0  0  0  0  0  0
    1.6180    2.3089   -1.2793 H   0  0  0  0  0  0  0  0  0  0  0  0
    0.9594    1.0867   -2.3808 H   0  0  0  0  0  0  0  0  0  0  0  0
  1  2  1  0
  2  3  1  0
  2  4  1  0
  4  5  1  0
  5  6  1  0
  6  7  1  0
  7  8  1  0
  8  9  1  0
  9 10  2  0
  9 11  1  0
 11 12  1  0
 12 13  1  0
 13 14  2  0
 14 15  1  0
 15 16  2  0
 16 17  1  0
 17 18  2  0
 11 19  1  0
 19 20  2  0
 20 21  1  0
 21 22  2  0
 22 23  1  0
 23 24  2  0
  8 25  1  0
 25 26  1  0
 26 27  2  0
 26  5  1  0
 18 13  1  0
 24 19  1  0
  1 28  1  0
  1 29  1  0
  1 30  1  0
  2 31  1  0
  3 32  1  0
  4 33  1  0
  4 34  1  0
  6 35  1  0
  6 36  1  0
  7 37  1  0
  7 38  1  0
 11 39  1  0
 12 40  1  0
 12 41  1  0
 14 42  1  0
 15 43  1  0
 16 44  1  0
 17 45  1  0
 18 46  1  0
 20 47  1  0
 21 48  1  0
 22 49  1  0
 23 50  1  0
 24 51  1  0
 25 52  1  0
 25 53  1  0
M  END
>  <smiles>
CC(O)CN1CCN(C(=O)C(Cc2ccccc2)c2ccccc2)CC1=O

$$$$
