mol_f24bbfdf4836
     RDKit          3D

 57 60  0  0  0  0  0  0  0  0999 V2000
   -2.8751   -3.4187   -1.3248 C   0  0  0  0  0  0  0  0  0  0  0  0
   -2.1093   -3.0706   -0.0524 C   0  0  0  0  0  0  0  0  0  0  0  0
   -3.0044   -2.9386    1.1726 C   0  0  0  0  0  0  0  0  0  0  0  0
   -3.9035   -1.7113    1.0947 C   0  0  0  0  0  0  0  0  0  0  0  0
   -3.1506   -0.4558    0.7071 C   0  0  0  0  0  0  0  0  0  0  0  0
   -3.9540    0.7767    0.8841 C   0  0  0  0  0  0  0  0  0  0  0  0
   -4.3685    1.1953    2.1550 C   0  0  0  0  0  0  0  0  0  0  0  0
   -5.1593    2.3373    2.3023 C   0  0  0  0  0  0  0  0  0  0  0  0
   -5.5496    3.0668    1.1808 C   0  0  0  0  0  0  0  0  0  0  0  0
   -5.1480    2.6579   -0.0893 C   0  0  0  0  0  0  0  0  0  0  0  0
   -4.3558    1.5174   -0.2378 C   0  0  0  0  0  0  0  0  0  0  0  0
   -1.9156   -0.4699    0.1574 C   0  0  0  0  0  0  0  0  0  0  0  0
   -1.1247    0.6208   -0.1567 N   0  0  0  0  0  0  0  0  0  0  0  0
   -0.9776    1.7875    0.5655 C   0  0  0  0  0  0  0  0  0  0  0  0
   -1.3803    1.9749    1.7102 O   0  0  0  0  0  0  0  0  0  0  0  0
   -0.1486    2.8408   -0.1435 C   0  0  0  0  0  0  0  0  0  0  0  0
    1.3388    2.6453    0.1514 C   0  0  0  0  0  0  0  0  0  0  0  0
    1.9351    1.5021   -0.6569 C   0  0  0  0  0  0  0  0  0  0  0  0
    1.2432    0.9930   -1.5521 O   0  0  0  0  0  0  0  0  0  0  0  0
    3.2204    1.0244   -0.3485 N   0  0  0  0  0  0  0  0  0  0  0  0
    3.6175   -0.1739   -0.9462 C   0  0  0  0  0  0  0  0  0  0  0  0
    4.7835   -0.8043   -0.7565 C   0  0  0  0  0  0  0  0  0  0  0  0
    5.1611   -2.0974   -1.4036 C   0  0  0  0  0  0  0  0  0  0  0  0
    6.5171   -2.5698   -0.9871 C   0  0  0  0  0  0  0  0  0  0  0  0
    7.2819   -1.8823   -0.1308 C   0  0  0  0  0  0  0  0  0  0  0  0
    6.9336   -0.6957    0.4551 N   0  0  0  0  0  0  0  0  0  0  0  0
    5.7704   -0.2012    0.1615 C   0  0  0  0  0  0  0  0  0  0  0  0
    5.3585    1.0760    0.7691 C   0  0  0  0  0  0  0  0  0  0  0  0
    4.1598    1.6114    0.4991 C   0  0  0  0  0  0  0  0  0  0  0  0
    3.8326    2.8305    1.0557 O   0  0  0  0  0  0  0  0  0  0  0  0
   -1.3194   -1.7936   -0.2643 C   0  0  0  0  0  0  0  0  0  0  0  0
   -0.2200   -1.8176   -0.8245 O   0  0  0  0  0  0  0  0  0  0  0  0
   -3.4635   -4.3317   -1.1887 H   0  0  0  0  0  0  0  0  0  0  0  0
   -2.1812   -3.5859   -2.1562 H   0  0  0  0  0  0  0  0  0  0  0  0
   -3.5528   -2.6149   -1.6305 H   0  0  0  0  0  0  0  0  0  0  0  0
   -1.3862   -3.8704    0.1523 H   0  0  0  0  0  0  0  0  0  0  0  0
   -2.3741   -2.8573    2.0687 H   0  0  0  0  0  0  0  0  0  0  0  0
   -3.6157   -3.8395    1.3019 H   0  0  0  0  0  0  0  0  0  0  0  0
   -4.3820   -1.5923    2.0743 H   0  0  0  0  0  0  0  0  0  0  0  0
   -4.7095   -1.8842    0.3704 H   0  0  0  0  0  0  0  0  0  0  0  0
   -4.0513    0.6534    3.0424 H   0  0  0  0  0  0  0  0  0  0  0  0
   -5.4590    2.6624    3.2949 H   0  0  0  0  0  0  0  0  0  0  0  0
   -6.1604    3.9579    1.2983 H   0  0  0  0  0  0  0  0  0  0  0  0
   -5.4496    3.2270   -0.9643 H   0  0  0  0  0  0  0  0  0  0  0  0
   -4.0554    1.2095   -1.2364 H   0  0  0  0  0  0  0  0  0  0  0  0
   -0.3968    0.4325   -0.8563 H   0  0  0  0  0  0  0  0  0  0  0  0
   -0.4724    3.8176    0.2354 H   0  0  0  0  0  0  0  0  0  0  0  0
   -0.3674    2.8308   -1.2172 H   0  0  0  0  0  0  0  0  0  0  0  0
    1.4725    2.4472    1.2199 H   0  0  0  0  0  0  0  0  0  0  0  0
    1.8625    3.5649   -0.1298 H   0  0  0  0  0  0  0  0  0  0  0  0
    2.8848   -0.6311   -1.6117 H   0  0  0  0  0  0  0  0  0  0  0  0
    5.1519   -1.9805   -2.4937 H   0  0  0  0  0  0  0  0  0  0  0  0
    4.4271   -2.8689   -1.1425 H   0  0  0  0  0  0  0  0  0  0  0  0
    6.8795   -3.5049   -1.4019 H   0  0  0  0  0  0  0  0  0  0  0  0
    8.2624   -2.2651    0.1439 H   0  0  0  0  0  0  0  0  0  0  0  0
    6.0853    1.5408    1.4225 H   0  0  0  0  0  0  0  0  0  0  0  0
    4.5619    3.1253    1.6279 H   0  0  0  0  0  0  0  0  0  0  0  0
  1  2  1  0
  2  3  1  0
  3  4  1  0
  4  5  1  0
  5  6  1  0
  6  7  2  0
  7  8  1  0
  8  9  2  0
  9 10  1  0
 10 11  2  0
  5 12  2  0
 12 13  1  0
 13 14  1  0
 14 15  2  0
 14 16  1  0
 16 17  1  0
 17 18  1  0
 18 19  2  0
 18 20  1  0
 20 21  1  0
 21 22  2  0
 22 23  1  0
 23 24  1  0
 24 25  2  0
 25 26  1  0
 26 27  2  0
 27 28  1  0
 28 29  2  0
 29 30  1  0
 12 31  1  0
 31 32  2  0
 31  2  1  0
 11  6  1  0
 29 20  1  0
 27 22  1  0
  1 33  1  0
  1 34  1  0
  1 35  1  0
  2 36  1  0
  3 37  1  0
  3 38  1  0
  4 39  1  0
  4 40  1  0
  7 41  1  0
  8 42  1  0
  9 43  1  0
 10 44  1  0
 11 45  1  0
 13 46  1  0
 16 47  1  0
 16 48  1  0
 17 49  1  0
 17 50  1  0
 21 51  1  0
 23 52  1  0
 23 53  1  0
 24 54  1  0
 25 55  1  0
 28 56  1  0
 30 57  1  0
M  END
>  <smiles>
CC1CCC(c2ccccc2)=C(NC(=O)CCC(=O)N2C=C3CC=CN=C3C=C2O)C1=O

$$$$
