mol_86c971a51466
     RDKit          3D

 54 56  0  0  0  0  0  0  0  0999 V2000
    6.1047    1.8692    0.0671 C   0  0  0  0  0  0  0  0  0  0  0  0
    5.4799    0.6327    0.7009 C   0  0  0  0  0  0  0  0  0  0  0  0
    6.1740    0.3362    1.9100 O   0  0  0  0  0  0  0  0  0  0  0  0
    5.5430   -0.5728   -0.2406 C   0  0  0  0  0  0  0  0  0  0  0  0
    4.7868   -1.7842    0.3072 C   0  0  0  0  0  0  0  0  0  0  0  0
    3.3857   -1.5030    0.4570 O   0  0  0  0  0  0  0  0  0  0  0  0
    2.6292   -1.6057   -0.6669 C   0  0  0  0  0  0  0  0  0  0  0  0
    3.0508   -1.9053   -1.7764 O   0  0  0  0  0  0  0  0  0  0  0  0
    1.1852   -1.2991   -0.3779 C   0  0  0  0  0  0  0  0  0  0  0  0
    1.0083    0.0978    0.2253 C   0  0  0  0  0  0  0  0  0  0  0  0
    1.4400    1.2285   -0.7194 C   0  0  0  0  0  0  0  0  0  0  0  0
    0.1745    1.5306   -1.5121 C   0  0  0  0  0  0  0  0  0  0  0  0
   -0.9246    1.3739   -0.4729 C   0  0  0  0  0  0  0  0  0  0  0  0
   -0.4077    0.3949    0.4720 N   0  0  0  0  0  0  0  0  0  0  0  0
   -1.0904   -0.1742    1.5278 C   0  0  0  0  0  0  0  0  0  0  0  0
   -0.5501   -0.9812    2.2872 O   0  0  0  0  0  0  0  0  0  0  0  0
   -2.5468    0.2210    1.7282 C   0  0  0  0  0  0  0  0  0  0  0  0
   -3.5145   -0.5346    0.8494 C   0  0  0  0  0  0  0  0  0  0  0  0
   -3.4208   -1.9342    0.7054 C   0  0  0  0  0  0  0  0  0  0  0  0
   -4.3437   -2.6558   -0.0720 C   0  0  0  0  0  0  0  0  0  0  0  0
   -5.3812   -1.9890   -0.7051 C   0  0  0  0  0  0  0  0  0  0  0  0
   -6.2826   -2.6862   -1.4480 O   0  0  0  0  0  0  0  0  0  0  0  0
   -5.4786   -0.6209   -0.5602 C   0  0  0  0  0  0  0  0  0  0  0  0
   -4.5720    0.1018    0.2027 C   0  0  0  0  0  0  0  0  0  0  0  0
   -5.0061    1.5193    0.2269 C   0  0  0  0  0  0  0  0  0  0  0  0
   -6.0172    1.4942   -0.9203 C   0  0  0  0  0  0  0  0  0  0  0  0
   -6.4755    0.1382   -1.1217 O   0  0  0  0  0  0  0  0  0  0  0  0
    7.1571    1.6953   -0.1829 H   0  0  0  0  0  0  0  0  0  0  0  0
    5.5722    2.1604   -0.8434 H   0  0  0  0  0  0  0  0  0  0  0  0
    6.0824    2.7098    0.7690 H   0  0  0  0  0  0  0  0  0  0  0  0
    4.4413    0.8584    0.9647 H   0  0  0  0  0  0  0  0  0  0  0  0
    7.1219    0.2583    1.7060 H   0  0  0  0  0  0  0  0  0  0  0  0
    6.5884   -0.8654   -0.3969 H   0  0  0  0  0  0  0  0  0  0  0  0
    5.1247   -0.2885   -1.2127 H   0  0  0  0  0  0  0  0  0  0  0  0
    4.9314   -2.6571   -0.3407 H   0  0  0  0  0  0  0  0  0  0  0  0
    5.1677   -2.0620    1.2957 H   0  0  0  0  0  0  0  0  0  0  0  0
    0.6197   -1.3936   -1.3128 H   0  0  0  0  0  0  0  0  0  0  0  0
    0.8038   -2.0789    0.2907 H   0  0  0  0  0  0  0  0  0  0  0  0
    1.5541    0.1672    1.1740 H   0  0  0  0  0  0  0  0  0  0  0  0
    2.2903    0.9814   -1.3605 H   0  0  0  0  0  0  0  0  0  0  0  0
    1.7141    2.1127   -0.1297 H   0  0  0  0  0  0  0  0  0  0  0  0
    0.0475    0.7919   -2.3120 H   0  0  0  0  0  0  0  0  0  0  0  0
    0.1827    2.5253   -1.9662 H   0  0  0  0  0  0  0  0  0  0  0  0
   -1.8657    1.0383   -0.9142 H   0  0  0  0  0  0  0  0  0  0  0  0
   -1.0963    2.3097    0.0695 H   0  0  0  0  0  0  0  0  0  0  0  0
   -2.6385    1.3026    1.5882 H   0  0  0  0  0  0  0  0  0  0  0  0
   -2.8093    0.0294    2.7762 H   0  0  0  0  0  0  0  0  0  0  0  0
   -2.6292   -2.4872    1.2115 H   0  0  0  0  0  0  0  0  0  0  0  0
   -4.2519   -3.7340   -0.1668 H   0  0  0  0  0  0  0  0  0  0  0  0
   -6.9246   -2.0248   -1.7691 H   0  0  0  0  0  0  0  0  0  0  0  0
   -4.2040    2.2362    0.0351 H   0  0  0  0  0  0  0  0  0  0  0  0
   -5.4956    1.7482    1.1790 H   0  0  0  0  0  0  0  0  0  0  0  0
   -6.8766    2.1404   -0.7133 H   0  0  0  0  0  0  0  0  0  0  0  0
   -5.5578    1.8337   -1.8576 H   0  0  0  0  0  0  0  0  0  0  0  0
  1  2  1  0
  2  3  1  0
  2  4  1  0
  4  5  1  0
  5  6  1  0
  6  7  1  0
  7  8  2  0
  7  9  1  0
  9 10  1  0
 10 11  1  0
 11 12  1  0
 12 13  1  0
 13 14  1  0
 14 15  1  0
 15 16  2  0
 15 17  1  0
 17 18  1  0
 18 19  1  0
 19 20  2  0
 20 21  1  0
 21 22  1  0
 21 23  2  0
 23 24  1  0
 24 25  1  0
 25 26  1  0
 26 27  1  0
 14 10  1  0
 24 18  2  0
 27 23  1  0
  1 28  1  0
  1 29  1  0
  1 30  1  0
  2 31  1  0
  3 32  1  0
  4 33  1  0
  4 34  1  0
  5 35  1  0
  5 36  1  0
  9 37  1  0
  9 38  1  0
 10 39  1  0
 11 40  1  0
 11 41  1  0
 12 42  1  0
 12 43  1  0
 13 44  1  0
 13 45  1  0
 17 46  1  0
 17 47  1  0
 19 48  1  0
 20 49  1  0
 22 50  1  0
 25 51  1  0
 25 52  1  0
 26 53  1  0
 26 54  1  0
M  END
>  <smiles>
CC(O)CCOC(=O)CC1CCCN1C(=O)Cc1ccc(O)c2c1CCO2

$$$$
