mol_61523ca4503e
     RDKit          3D

 57 61  0  0  0  0  0  0  0  0999 V2000
   -5.8654    2.3684   -2.1549 C   0  0  0  0  0  0  0  0  0  0  0  0
   -6.0285    1.3118   -1.0979 C   0  0  0  0  0  0  0  0  0  0  0  0
   -7.3185    0.9623   -0.6795 C   0  0  0  0  0  0  0  0  0  0  0  0
   -8.3862    1.5629   -1.2262 F   0  0  0  0  0  0  0  0  0  0  0  0
   -7.5344   -0.0001    0.2988 C   0  0  0  0  0  0  0  0  0  0  0  0
   -6.4492   -0.6432    0.8844 C   0  0  0  0  0  0  0  0  0  0  0  0
   -5.1391   -0.3243    0.4945 C   0  0  0  0  0  0  0  0  0  0  0  0
   -4.9171    0.6843   -0.4882 C   0  0  0  0  0  0  0  0  0  0  0  0
   -3.5023    1.0618   -0.9222 C   0  0  0  0  0  0  0  0  0  0  0  0
   -2.4731    0.5777    0.0859 C   0  0  0  0  0  0  0  0  0  0  0  0
   -0.9720    0.6913   -0.2894 C   0  0  0  0  0  0  0  0  0  0  0  0
   -0.4654   -0.7302   -0.0766 C   0  0  0  0  0  0  0  0  0  0  0  0
   -1.4075   -1.2732    1.0040 C   0  0  0  0  0  0  0  0  0  0  0  0
   -0.8294   -2.6524    1.2172 C   0  0  0  0  0  0  0  0  0  0  0  0
    0.6774   -2.3013    1.2779 C   0  0  0  0  0  0  0  0  0  0  0  0
    0.8202   -1.0970    0.4433 N   0  0  0  0  0  0  0  0  0  0  0  0
    1.9938   -0.5238    0.0145 C   0  0  0  0  0  0  0  0  0  0  0  0
    2.0213    0.3905   -0.8134 O   0  0  0  0  0  0  0  0  0  0  0  0
    3.2824   -1.0835    0.6218 C   0  0  0  0  0  0  0  0  0  0  0  0
    4.4188   -0.3018    0.1785 N   0  0  0  0  0  0  0  0  0  0  0  0
    5.6875   -0.5703    0.6301 C   0  0  0  0  0  0  0  0  0  0  0  0
    5.9321   -1.4927    1.4010 O   0  0  0  0  0  0  0  0  0  0  0  0
    6.7838    0.2987    0.1164 C   0  0  0  0  0  0  0  0  0  0  0  0
    6.5558    1.6015   -0.3466 C   0  0  0  0  0  0  0  0  0  0  0  0
    7.6220    2.3742   -0.8152 C   0  0  0  0  0  0  0  0  0  0  0  0
    8.9164    1.8550   -0.8169 C   0  0  0  0  0  0  0  0  0  0  0  0
    9.1518    0.5651   -0.3439 C   0  0  0  0  0  0  0  0  0  0  0  0
    8.0897   -0.2099    0.1254 C   0  0  0  0  0  0  0  0  0  0  0  0
   -2.7268   -0.9236    0.3711 C   0  0  0  0  0  0  0  0  0  0  0  0
   -3.9970   -1.0558    1.1857 C   0  0  0  0  0  0  0  0  0  0  0  0
   -5.4966    3.2957   -1.7056 H   0  0  0  0  0  0  0  0  0  0  0  0
   -5.1674    2.0357   -2.9298 H   0  0  0  0  0  0  0  0  0  0  0  0
   -6.8122    2.5902   -2.6580 H   0  0  0  0  0  0  0  0  0  0  0  0
   -8.5496   -0.2423    0.5960 H   0  0  0  0  0  0  0  0  0  0  0  0
   -6.6279   -1.3969    1.6481 H   0  0  0  0  0  0  0  0  0  0  0  0
   -3.4118    2.1498   -1.0154 H   0  0  0  0  0  0  0  0  0  0  0  0
   -3.3111    0.6166   -1.9062 H   0  0  0  0  0  0  0  0  0  0  0  0
   -2.6110    1.1537    1.0149 H   0  0  0  0  0  0  0  0  0  0  0  0
   -0.8207    1.0228   -1.3214 H   0  0  0  0  0  0  0  0  0  0  0  0
   -0.4662    1.4026    0.3730 H   0  0  0  0  0  0  0  0  0  0  0  0
   -0.5776   -1.2818   -1.0230 H   0  0  0  0  0  0  0  0  0  0  0  0
   -1.2907   -0.7139    1.9473 H   0  0  0  0  0  0  0  0  0  0  0  0
   -1.1810   -3.1390    2.1306 H   0  0  0  0  0  0  0  0  0  0  0  0
   -1.0396   -3.3091    0.3651 H   0  0  0  0  0  0  0  0  0  0  0  0
    1.3059   -3.1115    0.8978 H   0  0  0  0  0  0  0  0  0  0  0  0
    0.9907   -2.0455    2.2956 H   0  0  0  0  0  0  0  0  0  0  0  0
    3.2335   -1.0432    1.7143 H   0  0  0  0  0  0  0  0  0  0  0  0
    3.4269   -2.1180    0.2958 H   0  0  0  0  0  0  0  0  0  0  0  0
    4.2328    0.4014   -0.5281 H   0  0  0  0  0  0  0  0  0  0  0  0
    5.5640    2.0430   -0.3289 H   0  0  0  0  0  0  0  0  0  0  0  0
    7.4434    3.3858   -1.1722 H   0  0  0  0  0  0  0  0  0  0  0  0
    9.7440    2.4595   -1.1801 H   0  0  0  0  0  0  0  0  0  0  0  0
   10.1615    0.1622   -0.3371 H   0  0  0  0  0  0  0  0  0  0  0  0
    8.2814   -1.2148    0.4970 H   0  0  0  0  0  0  0  0  0  0  0  0
   -2.8507   -1.4782   -0.5718 H   0  0  0  0  0  0  0  0  0  0  0  0
   -4.2441   -2.1177    1.3013 H   0  0  0  0  0  0  0  0  0  0  0  0
   -3.8669   -0.6299    2.1881 H   0  0  0  0  0  0  0  0  0  0  0  0
  1  2  1  0
  2  3  2  0
  3  4  1  0
  3  5  1  0
  5  6  2  0
  6  7  1  0
  7  8  2  0
  8  9  1  0
  9 10  1  0
 10 11  1  0
 11 12  1  0
 12 13  1  0
 13 14  1  0
 14 15  1  0
 15 16  1  0
 16 17  1  0
 17 18  2  0
 17 19  1  0
 19 20  1  0
 20 21  1  0
 21 22  2  0
 21 23  1  0
 23 24  2  0
 24 25  1  0
 25 26  2  0
 26 27  1  0
 27 28  2  0
 13 29  1  0
 29 30  1  0
  8  2  1  0
 29 10  1  0
 30  7  1  0
 16 12  1  0
 28 23  1  0
  1 31  1  0
  1 32  1  0
  1 33  1  0
  5 34  1  0
  6 35  1  0
  9 36  1  0
  9 37  1  0
 10 38  1  0
 11 39  1  0
 11 40  1  0
 12 41  1  0
 13 42  1  0
 14 43  1  0
 14 44  1  0
 15 45  1  0
 15 46  1  0
 19 47  1  0
 19 48  1  0
 20 49  1  0
 24 50  1  0
 25 51  1  0
 26 52  1  0
 27 53  1  0
 28 54  1  0
 29 55  1  0
 30 56  1  0
 30 57  1  0
M  END
>  <smiles>
Cc1c(F)ccc2c1CC1CC3C(CCN3C(=O)CNC(=O)c3ccccc3)C1C2

$$$$
