mol_104e17a9d2b7
     RDKit          3D

 52 54  0  0  0  0  0  0  0  0999 V2000
    5.0152    0.0073   -1.5435 C   0  0  0  0  0  0  0  0  0  0  0  0
    3.7176   -0.0779   -0.7368 C   0  0  0  0  0  0  0  0  0  0  0  0
    2.5239   -0.0772   -1.7049 C   0  0  0  0  0  0  0  0  0  0  0  0
    1.2694   -0.0635   -0.9644 N   0  0  0  0  0  0  0  0  0  0  0  0
    0.2429    0.7749   -1.3861 C   0  0  0  0  0  0  0  0  0  0  0  0
    0.4105    1.5544   -2.3293 O   0  0  0  0  0  0  0  0  0  0  0  0
   -1.1139    0.7096   -0.6561 C   0  0  0  0  0  0  0  0  0  0  0  0
   -1.9401    1.9795   -0.9694 C   0  0  0  0  0  0  0  0  0  0  0  0
   -3.0882    2.1967   -0.0071 C   0  0  0  0  0  0  0  0  0  0  0  0
   -2.8710    2.8288    1.2251 C   0  0  0  0  0  0  0  0  0  0  0  0
   -3.9248    3.0102    2.1220 C   0  0  0  0  0  0  0  0  0  0  0  0
   -5.2030    2.5596    1.7978 C   0  0  0  0  0  0  0  0  0  0  0  0
   -5.4290    1.9280    0.5764 C   0  0  0  0  0  0  0  0  0  0  0  0
   -4.3772    1.7472   -0.3226 C   0  0  0  0  0  0  0  0  0  0  0  0
   -1.8844   -0.5570   -1.0143 C   0  0  0  0  0  0  0  0  0  0  0  0
   -2.0405   -0.9649   -2.3486 C   0  0  0  0  0  0  0  0  0  0  0  0
   -2.7535   -2.1243   -2.6573 C   0  0  0  0  0  0  0  0  0  0  0  0
   -3.3250   -2.8849   -1.6398 C   0  0  0  0  0  0  0  0  0  0  0  0
   -3.1893   -2.4849   -0.3125 C   0  0  0  0  0  0  0  0  0  0  0  0
   -2.4764   -1.3266   -0.0004 C   0  0  0  0  0  0  0  0  0  0  0  0
    1.1359   -1.1031    0.0554 C   0  0  0  0  0  0  0  0  0  0  0  0
    2.4230   -1.6479    0.7008 C   0  0  0  0  0  0  0  0  0  0  0  0
    2.3458   -2.4667    1.6201 O   0  0  0  0  0  0  0  0  0  0  0  0
    3.6473   -1.2348    0.1796 N   0  0  0  0  0  0  0  0  0  0  0  0
    4.8572   -1.7221    0.8601 C   0  0  0  0  0  0  0  0  0  0  0  0
    5.3451   -0.8639    2.0223 C   0  0  0  0  0  0  0  0  0  0  0  0
    6.3379   -1.0933    2.6980 O   0  0  0  0  0  0  0  0  0  0  0  0
    4.6002    0.2298    2.2816 O   0  0  0  0  0  0  0  0  0  0  0  0
    5.1855   -0.9091   -2.1188 H   0  0  0  0  0  0  0  0  0  0  0  0
    5.8802    0.1670   -0.8918 H   0  0  0  0  0  0  0  0  0  0  0  0
    4.9850    0.8484   -2.2446 H   0  0  0  0  0  0  0  0  0  0  0  0
    3.6446    0.8163   -0.1046 H   0  0  0  0  0  0  0  0  0  0  0  0
    2.5887    0.7821   -2.3803 H   0  0  0  0  0  0  0  0  0  0  0  0
    2.5227   -0.9831   -2.3244 H   0  0  0  0  0  0  0  0  0  0  0  0
   -0.8958    0.7180    0.4186 H   0  0  0  0  0  0  0  0  0  0  0  0
   -1.2958    2.8683   -0.9200 H   0  0  0  0  0  0  0  0  0  0  0  0
   -2.3232    1.9595   -1.9986 H   0  0  0  0  0  0  0  0  0  0  0  0
   -1.8797    3.1875    1.4923 H   0  0  0  0  0  0  0  0  0  0  0  0
   -3.7490    3.5044    3.0738 H   0  0  0  0  0  0  0  0  0  0  0  0
   -6.0234    2.7009    2.4963 H   0  0  0  0  0  0  0  0  0  0  0  0
   -6.4245    1.5732    0.3229 H   0  0  0  0  0  0  0  0  0  0  0  0
   -4.5673    1.2437   -1.2684 H   0  0  0  0  0  0  0  0  0  0  0  0
   -1.6102   -0.3812   -3.1610 H   0  0  0  0  0  0  0  0  0  0  0  0
   -2.8659   -2.4316   -3.6939 H   0  0  0  0  0  0  0  0  0  0  0  0
   -3.8822   -3.7861   -1.8817 H   0  0  0  0  0  0  0  0  0  0  0  0
   -3.6444   -3.0717    0.4813 H   0  0  0  0  0  0  0  0  0  0  0  0
   -2.3971   -1.0222    1.0416 H   0  0  0  0  0  0  0  0  0  0  0  0
    0.5058   -0.7426    0.8716 H   0  0  0  0  0  0  0  0  0  0  0  0
    0.6368   -1.9540   -0.4217 H   0  0  0  0  0  0  0  0  0  0  0  0
    5.6640   -1.8241    0.1303 H   0  0  0  0  0  0  0  0  0  0  0  0
    4.6605   -2.7194    1.2692 H   0  0  0  0  0  0  0  0  0  0  0  0
    5.0288    0.6227    3.0705 H   0  0  0  0  0  0  0  0  0  0  0  0
  1  2  1  0
  2  3  1  0
  3  4  1  0
  4  5  1  0
  5  6  2  0
  5  7  1  0
  7  8  1  0
  8  9  1  0
  9 10  2  0
 10 11  1  0
 11 12  2  0
 12 13  1  0
 13 14  2  0
  7 15  1  0
 15 16  2  0
 16 17  1  0
 17 18  2  0
 18 19  1  0
 19 20  2  0
  4 21  1  0
 21 22  1  0
 22 23  2  0
 22 24  1  0
 24 25  1  0
 25 26  1  0
 26 27  2  0
 26 28  1  0
 24  2  1  0
 14  9  1  0
 20 15  1  0
  1 29  1  0
  1 30  1  0
  1 31  1  0
  2 32  1  0
  3 33  1  0
  3 34  1  0
  7 35  1  0
  8 36  1  0
  8 37  1  0
 10 38  1  0
 11 39  1  0
 12 40  1  0
 13 41  1  0
 14 42  1  0
 16 43  1  0
 17 44  1  0
 18 45  1  0
 19 46  1  0
 20 47  1  0
 21 48  1  0
 21 49  1  0
 25 50  1  0
 25 51  1  0
 28 52  1  0
M  END
>  <smiles>
CC1CN(C(=O)C(Cc2ccccc2)c2ccccc2)CC(=O)N1CC(=O)O

$$$$
