
     RDKit          3D

 26 29  0  0  0  0  0  0  0  0999 V2000
   -4.0463  -10.5035   10.7336 F   0  0  0  0  0  0  0  0  0  0  0  0
   -3.0023  -10.4580    9.8908 C   0  0  0  0  0  0  0  0  0  0  0  0
   -3.0226   -9.4967    8.8802 C   0  0  0  0  0  0  0  0  0  0  0  0
   -1.9658   -9.4170    7.9775 C   0  0  0  0  0  0  0  0  0  0  0  0
   -0.8938  -10.2991    8.0918 C   0  0  0  0  0  0  0  0  0  0  0  0
   -0.8805  -11.2616    9.1076 C   0  0  0  0  0  0  0  0  0  0  0  0
   -1.9381  -11.3629   10.0302 C   0  0  0  0  0  0  0  0  0  0  0  0
   -1.9136  -12.3803   11.0965 C   0  0  0  0  0  0  0  0  0  0  0  0
   -2.1261  -12.0306   12.4396 C   0  0  0  0  0  0  0  0  0  0  0  0
   -2.0881  -12.9926   13.4511 C   0  0  0  0  0  0  0  0  0  0  0  0
   -1.8381  -14.3261   13.1366 C   0  0  0  0  0  0  0  0  0  0  0  0
   -1.6254  -14.7124   11.8077 C   0  0  0  0  0  0  0  0  0  0  0  0
   -1.3658  -16.1643   11.4632 C   0  0  0  0  0  0  0  0  0  0  0  0
   -0.1402  -16.6988   12.0774 N   0  0  0  0  0  0  0  0  0  0  0  0
    1.0678  -15.9974   11.5734 C   0  0  0  0  0  0  0  0  0  0  0  0
    2.3664  -16.8345   11.6370 C   0  0  0  0  0  0  0  0  0  0  0  0
    2.2177  -18.0640   10.8554 N   0  0  0  0  0  0  0  0  0  0  0  0
    3.1388  -18.3607    9.8739 C   0  0  0  0  0  0  0  0  0  0  0  0
    2.8229  -19.2879    8.9512 N   0  0  0  0  0  0  0  0  0  0  0  0
    3.7444  -19.5854    8.0156 C   0  0  0  0  0  0  0  0  0  0  0  0
    4.9791  -18.9961    7.9545 C   0  0  0  0  0  0  0  0  0  0  0  0
    5.2206  -18.0642    8.9286 C   0  0  0  0  0  0  0  0  0  0  0  0
    4.3287  -17.7356    9.8822 N   0  0  0  0  0  0  0  0  0  0  0  0
    0.8671  -18.6025   10.6992 C   0  0  0  0  0  0  0  0  0  0  0  0
   -0.0307  -18.1623   11.8770 C   0  0  0  0  0  0  0  0  0  0  0  0
   -1.6661  -13.7336   10.8003 C   0  0  0  0  0  0  0  0  0  0  0  0
  1  2  1  0
  2  3  2  0
  3  4  1  0
  4  5  2  0
  5  6  1  0
  6  7  2  0
  7  8  1  0
  8  9  2  0
  9 10  1  0
 10 11  2  0
 11 12  1  0
 12 13  1  0
 13 14  1  0
 14 15  1  0
 15 16  1  0
 16 17  1  0
 17 18  1  0
 18 19  2  0
 19 20  1  0
 20 21  2  0
 21 22  1  0
 22 23  2  0
 17 24  1  0
 24 25  1  0
 12 26  2  0
  7  2  1  0
 26  8  1  0
 25 14  1  0
 23 18  1  0
M  END
$$$$
