mol_199e7e751e0f
     RDKit          3D

 56 59  0  0  0  0  0  0  0  0999 V2000
   -4.8165   -2.8375    0.4235 C   0  0  0  0  0  0  0  0  0  0  0  0
   -5.1488   -1.6869   -0.5173 C   0  0  0  0  0  0  0  0  0  0  0  0
   -3.9030   -0.9306   -1.0023 C   0  0  0  0  0  0  0  0  0  0  0  0
   -3.2539   -0.0191    0.0685 C   0  0  0  0  0  0  0  0  0  0  0  0
   -1.7334    0.0682   -0.2042 C   0  0  0  0  0  0  0  0  0  0  0  0
   -1.0259    0.8828    0.8589 C   0  0  0  0  0  0  0  0  0  0  0  0
    0.2771    0.5780    1.2981 C   0  0  0  0  0  0  0  0  0  0  0  0
    1.0318   -0.5781    0.7632 C   0  0  0  0  0  0  0  0  0  0  0  0
    0.6394   -1.7206    0.9521 O   0  0  0  0  0  0  0  0  0  0  0  0
    2.1759   -0.2395    0.0742 N   0  0  0  0  0  0  0  0  0  0  0  0
    3.0670   -1.2482   -0.4837 C   0  0  0  0  0  0  0  0  0  0  0  0
    3.7673   -0.6928   -1.7364 C   0  0  0  0  0  0  0  0  0  0  0  0
    5.0946   -1.3976   -1.9915 C   0  0  0  0  0  0  0  0  0  0  0  0
    6.0830   -1.2027   -0.8292 C   0  0  0  0  0  0  0  0  0  0  0  0
    6.9776   -0.0761   -1.0964 N   0  0  0  0  0  0  0  0  0  0  0  0
    5.3789   -0.9926    0.5229 C   0  0  0  0  0  0  0  0  0  0  0  0
    4.0581   -1.7536    0.5826 C   0  0  0  0  0  0  0  0  0  0  0  0
    0.9072    1.3605    2.2719 C   0  0  0  0  0  0  0  0  0  0  0  0
    0.2449    2.4572    2.8089 C   0  0  0  0  0  0  0  0  0  0  0  0
   -1.0379    2.7836    2.3623 C   0  0  0  0  0  0  0  0  0  0  0  0
   -1.6901    2.0232    1.3722 C   0  0  0  0  0  0  0  0  0  0  0  0
   -3.0343    2.3699    0.8545 C   0  0  0  0  0  0  0  0  0  0  0  0
   -3.5825    3.6533    0.9519 C   0  0  0  0  0  0  0  0  0  0  0  0
   -4.7976    4.0240    0.4828 N   0  0  0  0  0  0  0  0  0  0  0  0
   -5.5165    3.0677   -0.1302 C   0  0  0  0  0  0  0  0  0  0  0  0
   -5.0774    1.7646   -0.3009 C   0  0  0  0  0  0  0  0  0  0  0  0
   -3.8161    1.3975    0.1870 C   0  0  0  0  0  0  0  0  0  0  0  0
   -5.7284   -3.3855    0.6817 H   0  0  0  0  0  0  0  0  0  0  0  0
   -4.1227   -3.5416   -0.0469 H   0  0  0  0  0  0  0  0  0  0  0  0
   -4.3673   -2.4822    1.3549 H   0  0  0  0  0  0  0  0  0  0  0  0
   -5.8560   -1.0151   -0.0222 H   0  0  0  0  0  0  0  0  0  0  0  0
   -5.6633   -2.1003   -1.3931 H   0  0  0  0  0  0  0  0  0  0  0  0
   -3.1795   -1.6825   -1.3435 H   0  0  0  0  0  0  0  0  0  0  0  0
   -4.1585   -0.3426   -1.8926 H   0  0  0  0  0  0  0  0  0  0  0  0
   -3.3899   -0.4829    1.0547 H   0  0  0  0  0  0  0  0  0  0  0  0
   -1.3376   -0.9504   -0.2417 H   0  0  0  0  0  0  0  0  0  0  0  0
   -1.5386    0.5313   -1.1807 H   0  0  0  0  0  0  0  0  0  0  0  0
    2.4200    0.7391   -0.0136 H   0  0  0  0  0  0  0  0  0  0  0  0
    2.4442   -2.1015   -0.7818 H   0  0  0  0  0  0  0  0  0  0  0  0
    3.9488    0.3855   -1.6378 H   0  0  0  0  0  0  0  0  0  0  0  0
    3.1057   -0.8100   -2.6032 H   0  0  0  0  0  0  0  0  0  0  0  0
    4.9054   -2.4714   -2.1225 H   0  0  0  0  0  0  0  0  0  0  0  0
    5.5279   -1.0543   -2.9391 H   0  0  0  0  0  0  0  0  0  0  0  0
    6.7063   -2.1033   -0.7697 H   0  0  0  0  0  0  0  0  0  0  0  0
    7.6203    0.0463   -0.3143 H   0  0  0  0  0  0  0  0  0  0  0  0
    6.4454    0.7897   -1.1667 H   0  0  0  0  0  0  0  0  0  0  0  0
    5.1773    0.0722    0.7021 H   0  0  0  0  0  0  0  0  0  0  0  0
    6.0398   -1.3213    1.3342 H   0  0  0  0  0  0  0  0  0  0  0  0
    3.6295   -1.6794    1.5890 H   0  0  0  0  0  0  0  0  0  0  0  0
    4.2609   -2.8183    0.4082 H   0  0  0  0  0  0  0  0  0  0  0  0
    1.9013    1.1018    2.6287 H   0  0  0  0  0  0  0  0  0  0  0  0
    0.7201    3.0584    3.5804 H   0  0  0  0  0  0  0  0  0  0  0  0
   -1.5254    3.6415    2.8203 H   0  0  0  0  0  0  0  0  0  0  0  0
   -3.0382    4.4719    1.4136 H   0  0  0  0  0  0  0  0  0  0  0  0
   -6.4889    3.3820   -0.4987 H   0  0  0  0  0  0  0  0  0  0  0  0
   -5.7274    1.0684   -0.8160 H   0  0  0  0  0  0  0  0  0  0  0  0
  1  2  1  0
  2  3  1  0
  3  4  1  0
  4  5  1  0
  5  6  1  0
  6  7  2  0
  7  8  1  0
  8  9  2  0
  8 10  1  0
 10 11  1  0
 11 12  1  0
 12 13  1  0
 13 14  1  0
 14 15  1  0
 14 16  1  0
 16 17  1  0
  7 18  1  0
 18 19  2  0
 19 20  1  0
 20 21  2  0
 21 22  1  0
 22 23  2  0
 23 24  1  0
 24 25  2  0
 25 26  1  0
 26 27  2  0
 27  4  1  0
 21  6  1  0
 27 22  1  0
 17 11  1  0
  1 28  1  0
  1 29  1  0
  1 30  1  0
  2 31  1  0
  2 32  1  0
  3 33  1  0
  3 34  1  0
  4 35  1  0
  5 36  1  0
  5 37  1  0
 10 38  1  0
 11 39  1  0
 12 40  1  0
 12 41  1  0
 13 42  1  0
 13 43  1  0
 14 44  1  0
 15 45  1  0
 15 46  1  0
 16 47  1  0
 16 48  1  0
 17 49  1  0
 17 50  1  0
 18 51  1  0
 19 52  1  0
 20 53  1  0
 23 54  1  0
 25 55  1  0
 26 56  1  0
M  END
>  <smiles>
CCCC1Cc2c(C(=O)NC3CCC(N)CC3)cccc2-c2cnccc21

$$$$
