mol_0cec4e8fa651
     RDKit          3D

 59 64  0  0  0  0  0  0  0  0999 V2000
    2.5710    1.8808   -2.8064 O   0  0  0  0  0  0  0  0  0  0  0  0
    1.5225    1.9376   -2.1600 C   0  0  0  0  0  0  0  0  0  0  0  0
    0.7279    3.2088   -2.0901 C   0  0  0  0  0  0  0  0  0  0  0  0
   -0.6585    3.0055   -1.5535 C   0  0  0  0  0  0  0  0  0  0  0  0
   -1.4788    4.1267   -1.3632 C   0  0  0  0  0  0  0  0  0  0  0  0
   -2.7796    3.9789   -0.8909 C   0  0  0  0  0  0  0  0  0  0  0  0
   -3.2876    2.7060   -0.6338 C   0  0  0  0  0  0  0  0  0  0  0  0
   -2.5019    1.5636   -0.8488 C   0  0  0  0  0  0  0  0  0  0  0  0
   -3.0603    0.2656   -0.6110 N   0  0  0  0  0  0  0  0  0  0  0  0
   -3.9495    0.0958    0.5231 C   0  0  0  0  0  0  0  0  0  0  0  0
   -3.7770   -1.2831    1.1378 C   0  0  0  0  0  0  0  0  0  0  0  0
   -4.6015   -1.4965    2.2869 O   0  0  0  0  0  0  0  0  0  0  0  0
   -5.9948   -1.6364    2.0133 C   0  0  0  0  0  0  0  0  0  0  0  0
   -6.2546   -2.7712    1.0339 C   0  0  0  0  0  0  0  0  0  0  0  0
   -5.4688   -2.5614   -0.2520 C   0  0  0  0  0  0  0  0  0  0  0  0
   -3.9889   -2.3261    0.0516 C   0  0  0  0  0  0  0  0  0  0  0  0
   -3.3119   -2.0115   -1.1783 O   0  0  0  0  0  0  0  0  0  0  0  0
   -2.8812   -0.7647   -1.5394 C   0  0  0  0  0  0  0  0  0  0  0  0
   -2.3990   -0.6198   -2.6594 O   0  0  0  0  0  0  0  0  0  0  0  0
   -1.1617    1.7299   -1.2650 C   0  0  0  0  0  0  0  0  0  0  0  0
   -0.3753    0.6086   -1.3131 O   0  0  0  0  0  0  0  0  0  0  0  0
    1.0378    0.7922   -1.2878 C   0  0  0  0  0  0  0  0  0  0  0  0
    1.5138    0.9550    0.1652 C   0  0  0  0  0  0  0  0  0  0  0  0
    2.8954    0.3945    0.4031 C   0  0  0  0  0  0  0  0  0  0  0  0
    4.0356    1.1644    0.1575 C   0  0  0  0  0  0  0  0  0  0  0  0
    5.3136    0.6291    0.3591 C   0  0  0  0  0  0  0  0  0  0  0  0
    5.4936   -0.6913    0.8082 C   0  0  0  0  0  0  0  0  0  0  0  0
    6.8328   -1.2750    1.0166 C   0  0  0  0  0  0  0  0  0  0  0  0
    7.9374   -0.9368    0.2543 C   0  0  0  0  0  0  0  0  0  0  0  0
    9.1493   -1.4861    0.4775 N   0  0  0  0  0  0  0  0  0  0  0  0
    9.2658   -2.3905    1.4706 N   0  0  0  0  0  0  0  0  0  0  0  0
    8.1675   -2.7052    2.1860 C   0  0  0  0  0  0  0  0  0  0  0  0
    6.9402   -2.1911    2.0074 N   0  0  0  0  0  0  0  0  0  0  0  0
    4.3348   -1.4476    1.0585 C   0  0  0  0  0  0  0  0  0  0  0  0
    3.0558   -0.9187    0.8543 C   0  0  0  0  0  0  0  0  0  0  0  0
    0.6644    3.6248   -3.1017 H   0  0  0  0  0  0  0  0  0  0  0  0
    1.2724    3.9030   -1.4404 H   0  0  0  0  0  0  0  0  0  0  0  0
   -1.1059    5.1251   -1.5862 H   0  0  0  0  0  0  0  0  0  0  0  0
   -3.4082    4.8545   -0.7461 H   0  0  0  0  0  0  0  0  0  0  0  0
   -4.3217    2.6225   -0.3114 H   0  0  0  0  0  0  0  0  0  0  0  0
   -4.9745    0.2643    0.1748 H   0  0  0  0  0  0  0  0  0  0  0  0
   -3.7414    0.8474    1.2948 H   0  0  0  0  0  0  0  0  0  0  0  0
   -2.7380   -1.3589    1.4847 H   0  0  0  0  0  0  0  0  0  0  0  0
   -6.3979   -0.6879    1.6429 H   0  0  0  0  0  0  0  0  0  0  0  0
   -6.4961   -1.8479    2.9634 H   0  0  0  0  0  0  0  0  0  0  0  0
   -7.3251   -2.8491    0.8172 H   0  0  0  0  0  0  0  0  0  0  0  0
   -5.9387   -3.7184    1.4880 H   0  0  0  0  0  0  0  0  0  0  0  0
   -5.8815   -1.7130   -0.8121 H   0  0  0  0  0  0  0  0  0  0  0  0
   -5.5800   -3.4301   -0.9121 H   0  0  0  0  0  0  0  0  0  0  0  0
   -3.5709   -3.2767    0.4064 H   0  0  0  0  0  0  0  0  0  0  0  0
    1.4511   -0.1280   -1.7192 H   0  0  0  0  0  0  0  0  0  0  0  0
    0.8114    0.4560    0.8467 H   0  0  0  0  0  0  0  0  0  0  0  0
    1.5014    2.0095    0.4707 H   0  0  0  0  0  0  0  0  0  0  0  0
    3.9463    2.1883   -0.2002 H   0  0  0  0  0  0  0  0  0  0  0  0
    6.1680    1.2752    0.1682 H   0  0  0  0  0  0  0  0  0  0  0  0
    7.8958   -0.2319   -0.5653 H   0  0  0  0  0  0  0  0  0  0  0  0
    8.2921   -3.4377    2.9735 H   0  0  0  0  0  0  0  0  0  0  0  0
    4.4238   -2.4742    1.4121 H   0  0  0  0  0  0  0  0  0  0  0  0
    2.1891   -1.5467    1.0510 H   0  0  0  0  0  0  0  0  0  0  0  0
  1  2  2  0
  2  3  1  0
  3  4  1  0
  4  5  2  0
  5  6  1  0
  6  7  2  0
  7  8  1  0
  8  9  1  0
  9 10  1  0
 10 11  1  0
 11 12  1  0
 12 13  1  0
 13 14  1  0
 14 15  1  0
 15 16  1  0
 16 17  1  0
 17 18  1  0
 18 19  2  0
  8 20  2  0
 20 21  1  0
 21 22  1  0
 22 23  1  0
 23 24  1  0
 24 25  1  0
 25 26  2  0
 26 27  1  0
 27 28  1  0
 28 29  2  0
 29 30  1  0
 30 31  2  0
 31 32  1  0
 32 33  2  0
 27 34  2  0
 34 35  1  0
 22  2  1  0
 35 24  2  0
 20  4  1  0
 33 28  1  0
 18  9  1  0
 16 11  1  0
  3 36  1  0
  3 37  1  0
  5 38  1  0
  6 39  1  0
  7 40  1  0
 10 41  1  0
 10 42  1  0
 11 43  1  0
 13 44  1  0
 13 45  1  0
 14 46  1  0
 14 47  1  0
 15 48  1  0
 15 49  1  0
 16 50  1  0
 22 51  1  0
 23 52  1  0
 23 53  1  0
 25 54  1  0
 26 55  1  0
 29 56  1  0
 32 57  1  0
 34 58  1  0
 35 59  1  0
M  END
>  <smiles>
O=C1Cc2cccc(N3CC4OCCCC4OC3=O)c2OC1Cc1ccc(-c2cnncn2)cc1

$$$$
