mol_d3781adf91cc
     RDKit          3D

 62 68  0  0  0  0  0  0  0  0999 V2000
   -3.6306    0.6071   -1.9186 C   0  0  0  0  0  0  0  0  0  0  0  0
   -3.7087   -0.4358   -0.7794 C   0  0  0  0  0  0  0  0  0  0  0  0
   -4.8113   -1.4654   -1.0896 C   0  0  0  0  0  0  0  0  0  0  0  0
   -4.3593   -2.4009   -2.1989 C   0  0  0  0  0  0  0  0  0  0  0  0
   -3.1885   -3.1364   -1.8504 O   0  0  0  0  0  0  0  0  0  0  0  0
   -2.2319   -2.4624   -1.1430 C   0  0  0  0  0  0  0  0  0  0  0  0
   -1.0825   -3.1948   -0.8703 C   0  0  0  0  0  0  0  0  0  0  0  0
   -0.0870   -2.6472   -0.0660 C   0  0  0  0  0  0  0  0  0  0  0  0
   -0.2343   -1.3499    0.4508 C   0  0  0  0  0  0  0  0  0  0  0  0
   -1.3491   -0.5555    0.1365 C   0  0  0  0  0  0  0  0  0  0  0  0
   -2.3806   -1.1628   -0.6320 C   0  0  0  0  0  0  0  0  0  0  0  0
   -1.5635    0.8107    0.7062 C   0  0  0  0  0  0  0  0  0  0  0  0
   -2.9094    1.1590    1.0167 C   0  0  0  0  0  0  0  0  0  0  0  0
   -3.2280    2.3483    1.6800 C   0  0  0  0  0  0  0  0  0  0  0  0
   -2.2305    3.2681    1.9489 C   0  0  0  0  0  0  0  0  0  0  0  0
   -0.9315    3.0234    1.5123 C   0  0  0  0  0  0  0  0  0  0  0  0
   -0.5627    1.8035    0.9063 C   0  0  0  0  0  0  0  0  0  0  0  0
    0.8560    1.6606    0.3929 C   0  0  0  0  0  0  0  0  0  0  0  0
    1.7709    2.8582    0.7072 C   0  0  0  0  0  0  0  0  0  0  0  0
    0.9466    4.1340    0.7101 C   0  0  0  0  0  0  0  0  0  0  0  0
   -0.0630    4.0652    1.7119 O   0  0  0  0  0  0  0  0  0  0  0  0
    2.9329    2.9858   -0.2840 C   0  0  0  0  0  0  0  0  0  0  0  0
    3.9487    1.8820   -0.0932 C   0  0  0  0  0  0  0  0  0  0  0  0
    4.7583    1.8958    0.8272 O   0  0  0  0  0  0  0  0  0  0  0  0
    3.8604    0.8737   -1.0222 N   0  0  0  0  0  0  0  0  0  0  0  0
    4.7294   -0.2800   -0.9686 C   0  0  0  0  0  0  0  0  0  0  0  0
    4.1726   -1.3481   -0.0627 C   0  0  0  0  0  0  0  0  0  0  0  0
    4.9054   -1.7885    1.0494 C   0  0  0  0  0  0  0  0  0  0  0  0
    4.4072   -2.7939    1.8809 C   0  0  0  0  0  0  0  0  0  0  0  0
    3.1609   -3.3598    1.6208 C   0  0  0  0  0  0  0  0  0  0  0  0
    2.4075   -2.9053    0.5360 C   0  0  0  0  0  0  0  0  0  0  0  0
    2.9180   -1.9209   -0.3180 C   0  0  0  0  0  0  0  0  0  0  0  0
    1.0746   -3.5008    0.2952 C   0  0  0  0  0  0  0  0  0  0  0  0
    0.9342   -4.7152    0.4020 O   0  0  0  0  0  0  0  0  0  0  0  0
   -4.0341    0.2426    0.5781 C   0  0  0  0  0  0  0  0  0  0  0  0
   -2.8854    1.3865   -1.7281 H   0  0  0  0  0  0  0  0  0  0  0  0
   -3.3515    0.1508   -2.8741 H   0  0  0  0  0  0  0  0  0  0  0  0
   -4.5967    1.1062   -2.0550 H   0  0  0  0  0  0  0  0  0  0  0  0
   -5.7472   -0.9669   -1.3678 H   0  0  0  0  0  0  0  0  0  0  0  0
   -5.0200   -2.0689   -0.1954 H   0  0  0  0  0  0  0  0  0  0  0  0
   -4.1809   -1.8769   -3.1436 H   0  0  0  0  0  0  0  0  0  0  0  0
   -5.1502   -3.1336   -2.3941 H   0  0  0  0  0  0  0  0  0  0  0  0
   -0.9899   -4.2133   -1.2421 H   0  0  0  0  0  0  0  0  0  0  0  0
    0.4909   -0.9973    1.1775 H   0  0  0  0  0  0  0  0  0  0  0  0
   -4.2548    2.5766    1.9538 H   0  0  0  0  0  0  0  0  0  0  0  0
   -2.4713    4.2079    2.4385 H   0  0  0  0  0  0  0  0  0  0  0  0
    1.3384    0.7854    0.8290 H   0  0  0  0  0  0  0  0  0  0  0  0
    0.7978    1.5147   -0.6932 H   0  0  0  0  0  0  0  0  0  0  0  0
    2.1668    2.7110    1.7225 H   0  0  0  0  0  0  0  0  0  0  0  0
    0.4907    4.3388   -0.2681 H   0  0  0  0  0  0  0  0  0  0  0  0
    1.5793    4.9946    0.9547 H   0  0  0  0  0  0  0  0  0  0  0  0
    2.5681    2.9995   -1.3178 H   0  0  0  0  0  0  0  0  0  0  0  0
    3.4659    3.9324   -0.1296 H   0  0  0  0  0  0  0  0  0  0  0  0
    3.1707    0.9192   -1.7586 H   0  0  0  0  0  0  0  0  0  0  0  0
    4.8232   -0.6763   -1.9857 H   0  0  0  0  0  0  0  0  0  0  0  0
    5.7271    0.0354   -0.6428 H   0  0  0  0  0  0  0  0  0  0  0  0
    5.8740   -1.3460    1.2779 H   0  0  0  0  0  0  0  0  0  0  0  0
    4.9904   -3.1321    2.7340 H   0  0  0  0  0  0  0  0  0  0  0  0
    2.7737   -4.1446    2.2671 H   0  0  0  0  0  0  0  0  0  0  0  0
    2.3464   -1.6017   -1.1857 H   0  0  0  0  0  0  0  0  0  0  0  0
   -4.1828   -0.5045    1.3696 H   0  0  0  0  0  0  0  0  0  0  0  0
   -4.9699    0.8089    0.4847 H   0  0  0  0  0  0  0  0  0  0  0  0
  1  2  1  0
  2  3  1  0
  3  4  1  0
  4  5  1  0
  5  6  1  0
  6  7  1  0
  7  8  2  0
  8  9  1  0
  9 10  2  0
 10 11  1  0
 10 12  1  0
 12 13  2  0
 13 14  1  0
 14 15  2  0
 15 16  1  0
 16 17  2  0
 17 18  1  0
 18 19  1  0
 19 20  1  0
 20 21  1  0
 19 22  1  0
 22 23  1  0
 23 24  2  0
 23 25  1  0
 25 26  1  0
 26 27  1  0
 27 28  2  0
 28 29  1  0
 29 30  2  0
 30 31  1  0
 31 32  2  0
 31 33  1  0
 33 34  2  0
 13 35  1  0
 11  2  1  0
 17 12  1  0
 32 27  1  0
 35  2  1  0
 11  6  2  0
 21 16  1  0
 33  8  1  0
  1 36  1  0
  1 37  1  0
  1 38  1  0
  3 39  1  0
  3 40  1  0
  4 41  1  0
  4 42  1  0
  7 43  1  0
  9 44  1  0
 14 45  1  0
 15 46  1  0
 18 47  1  0
 18 48  1  0
 19 49  1  0
 20 50  1  0
 20 51  1  0
 22 52  1  0
 22 53  1  0
 25 54  1  0
 26 55  1  0
 26 56  1  0
 28 57  1  0
 29 58  1  0
 30 59  1  0
 32 60  1  0
 35 61  1  0
 35 62  1  0
M  END
>  <smiles>
CC12CCOc3cc4cc(c31)-c1c(ccc3c1CC(CO3)CC(=O)NCc1cccc(c1)C4=O)C2

$$$$
