mol_ec9862b905d6
     RDKit          3D

 64 65  0  0  0  0  0  0  0  0999 V2000
   -6.3409    1.0597   -1.5912 C   0  0  0  0  0  0  0  0  0  0  0  0
   -5.5840   -0.1494   -1.5284 O   0  0  0  0  0  0  0  0  0  0  0  0
   -6.3396   -1.2648   -1.3371 C   0  0  0  0  0  0  0  0  0  0  0  0
   -7.5647   -1.2787   -1.3081 O   0  0  0  0  0  0  0  0  0  0  0  0
   -5.4991   -2.5203   -1.2661 C   0  0  0  0  0  0  0  0  0  0  0  0
   -4.0434   -2.2927   -0.8656 C   0  0  0  0  0  0  0  0  0  0  0  0
   -3.9087   -1.7761    0.5595 C   0  0  0  0  0  0  0  0  0  0  0  0
   -4.8986   -1.7116    1.2902 O   0  0  0  0  0  0  0  0  0  0  0  0
   -2.6350   -1.4056    0.9945 N   0  0  0  0  0  0  0  0  0  0  0  0
   -2.5213   -0.8608    2.3451 C   0  0  0  0  0  0  0  0  0  0  0  0
   -1.4191   -1.4367    0.1479 C   0  0  0  0  0  0  0  0  0  0  0  0
   -0.1653   -1.9996    0.8497 C   0  0  0  0  0  0  0  0  0  0  0  0
    0.7510   -0.9145    1.4092 C   0  0  0  0  0  0  0  0  0  0  0  0
    1.2030    0.1314    0.3585 C   0  0  0  0  0  0  0  0  0  0  0  0
    1.3027    1.5422    1.0137 C   0  0  0  0  0  0  0  0  0  0  0  0
    2.3416    1.6219    2.1552 C   0  0  0  0  0  0  0  0  0  0  0  0
    3.6935    1.3344    1.7231 N   0  0  0  0  0  0  0  0  0  0  0  0
    4.3999    0.2313    2.1353 C   0  0  0  0  0  0  0  0  0  0  0  0
    3.9568   -0.6292    2.8887 O   0  0  0  0  0  0  0  0  0  0  0  0
    5.7940    0.1388    1.5532 C   0  0  0  0  0  0  0  0  0  0  0  0
    5.7462   -0.3552    0.1134 C   0  0  0  0  0  0  0  0  0  0  0  0
    5.4551    0.7599   -0.8667 C   0  0  0  0  0  0  0  0  0  0  0  0
    5.4393    0.3720   -2.1726 N   0  0  0  0  0  0  0  0  0  0  0  0
    5.2338    1.9230   -0.5483 O   0  0  0  0  0  0  0  0  0  0  0  0
    1.5565    2.6490   -0.0213 C   0  0  0  0  0  0  0  0  0  0  0  0
    0.5135    2.6285   -1.1281 C   0  0  0  0  0  0  0  0  0  0  0  0
    0.5291    1.2877   -1.8422 C   0  0  0  0  0  0  0  0  0  0  0  0
    0.3007    0.0980   -0.9033 C   0  0  0  0  0  0  0  0  0  0  0  0
   -1.1723   -0.0608   -0.5057 C   0  0  0  0  0  0  0  0  0  0  0  0
   -5.6397    1.8923   -1.6957 H   0  0  0  0  0  0  0  0  0  0  0  0
   -7.0017    1.0517   -2.4635 H   0  0  0  0  0  0  0  0  0  0  0  0
   -6.9139    1.2045   -0.6699 H   0  0  0  0  0  0  0  0  0  0  0  0
   -5.5296   -2.9851   -2.2579 H   0  0  0  0  0  0  0  0  0  0  0  0
   -5.9782   -3.2022   -0.5540 H   0  0  0  0  0  0  0  0  0  0  0  0
   -3.5148   -3.2511   -0.9250 H   0  0  0  0  0  0  0  0  0  0  0  0
   -3.5698   -1.5936   -1.5610 H   0  0  0  0  0  0  0  0  0  0  0  0
   -1.8956   -1.5222    2.9496 H   0  0  0  0  0  0  0  0  0  0  0  0
   -2.0732    0.1349    2.2985 H   0  0  0  0  0  0  0  0  0  0  0  0
   -3.4903   -0.7695    2.8427 H   0  0  0  0  0  0  0  0  0  0  0  0
   -1.6102   -2.1408   -0.6681 H   0  0  0  0  0  0  0  0  0  0  0  0
    0.4146   -2.5774    0.1169 H   0  0  0  0  0  0  0  0  0  0  0  0
   -0.4383   -2.7138    1.6349 H   0  0  0  0  0  0  0  0  0  0  0  0
    1.6368   -1.3926    1.8422 H   0  0  0  0  0  0  0  0  0  0  0  0
    0.2397   -0.4228    2.2436 H   0  0  0  0  0  0  0  0  0  0  0  0
    2.2080   -0.1515    0.0156 H   0  0  0  0  0  0  0  0  0  0  0  0
    0.3280    1.7649    1.4716 H   0  0  0  0  0  0  0  0  0  0  0  0
    2.0636    0.9522    2.9753 H   0  0  0  0  0  0  0  0  0  0  0  0
    2.3579    2.6371    2.5681 H   0  0  0  0  0  0  0  0  0  0  0  0
    4.1473    1.9827    1.0782 H   0  0  0  0  0  0  0  0  0  0  0  0
    6.3557   -0.5758    2.1665 H   0  0  0  0  0  0  0  0  0  0  0  0
    6.2976    1.1075    1.6459 H   0  0  0  0  0  0  0  0  0  0  0  0
    4.9913   -1.1399   -0.0136 H   0  0  0  0  0  0  0  0  0  0  0  0
    6.7223   -0.7772   -0.1539 H   0  0  0  0  0  0  0  0  0  0  0  0
    5.2492    1.0740   -2.8763 H   0  0  0  0  0  0  0  0  0  0  0  0
    5.6143   -0.5778   -2.4705 H   0  0  0  0  0  0  0  0  0  0  0  0
    2.5508    2.5375   -0.4680 H   0  0  0  0  0  0  0  0  0  0  0  0
    1.5369    3.6293    0.4699 H   0  0  0  0  0  0  0  0  0  0  0  0
    0.7276    3.4278   -1.8467 H   0  0  0  0  0  0  0  0  0  0  0  0
   -0.4813    2.8303   -0.7145 H   0  0  0  0  0  0  0  0  0  0  0  0
   -0.2187    1.2881   -2.6441 H   0  0  0  0  0  0  0  0  0  0  0  0
    1.5038    1.1633   -2.3324 H   0  0  0  0  0  0  0  0  0  0  0  0
    0.5711   -0.7942   -1.4870 H   0  0  0  0  0  0  0  0  0  0  0  0
   -1.4662    0.7518    0.1687 H   0  0  0  0  0  0  0  0  0  0  0  0
   -1.8199    0.0354   -1.3858 H   0  0  0  0  0  0  0  0  0  0  0  0
  1  2  1  0
  2  3  1  0
  3  4  2  0
  3  5  1  0
  5  6  1  0
  6  7  1  0
  7  8  2  0
  7  9  1  0
  9 10  1  0
  9 11  1  0
 11 12  1  0
 12 13  1  0
 13 14  1  0
 14 15  1  0
 15 16  1  0
 16 17  1  0
 17 18  1  0
 18 19  2  0
 18 20  1  0
 20 21  1  0
 21 22  1  0
 22 23  1  0
 22 24  2  0
 15 25  1  0
 25 26  1  0
 26 27  1  0
 27 28  1  0
 28 29  1  0
 29 11  1  0
 28 14  1  0
  1 30  1  0
  1 31  1  0
  1 32  1  0
  5 33  1  0
  5 34  1  0
  6 35  1  0
  6 36  1  0
 10 37  1  0
 10 38  1  0
 10 39  1  0
 11 40  1  0
 12 41  1  0
 12 42  1  0
 13 43  1  0
 13 44  1  0
 14 45  1  0
 15 46  1  0
 16 47  1  0
 16 48  1  0
 17 49  1  0
 20 50  1  0
 20 51  1  0
 21 52  1  0
 21 53  1  0
 23 54  1  0
 23 55  1  0
 25 56  1  0
 25 57  1  0
 26 58  1  0
 26 59  1  0
 27 60  1  0
 27 61  1  0
 28 62  1  0
 29 63  1  0
 29 64  1  0
M  END
>  <smiles>
COC(=O)CCC(=O)N(C)C1CCC2C(CNC(=O)CCC(N)=O)CCCC2C1

$$$$
