mol_93db354a67ac
     RDKit          3D

 71 74  0  0  0  0  0  0  0  0999 V2000
   -6.0955   -0.6160    2.9716 C   0  0  0  0  0  0  0  0  0  0  0  0
   -4.9161   -0.8071    2.0106 C   0  0  0  0  0  0  0  0  0  0  0  0
   -4.1499   -2.0718    2.4294 C   0  0  0  0  0  0  0  0  0  0  0  0
   -5.3665   -0.8729    0.5197 C   0  0  0  0  0  0  0  0  0  0  0  0
   -4.1668   -1.0027   -0.4040 C   0  0  0  0  0  0  0  0  0  0  0  0
   -3.7031    0.0304   -1.1304 C   0  0  0  0  0  0  0  0  0  0  0  0
   -2.5501   -0.1848   -2.0196 C   0  0  0  0  0  0  0  0  0  0  0  0
   -2.7032   -0.8614   -3.2349 C   0  0  0  0  0  0  0  0  0  0  0  0
   -1.6029   -1.0722   -4.0666 C   0  0  0  0  0  0  0  0  0  0  0  0
   -0.3423   -0.6067   -3.6898 C   0  0  0  0  0  0  0  0  0  0  0  0
   -0.1710    0.0829   -2.4817 C   0  0  0  0  0  0  0  0  0  0  0  0
    1.1911    0.5569   -2.0560 C   0  0  0  0  0  0  0  0  0  0  0  0
    1.8403   -0.4322   -1.2295 N   0  0  0  0  0  0  0  0  0  0  0  0
    3.1193   -0.2383   -0.7623 C   0  0  0  0  0  0  0  0  0  0  0  0
    3.7812    0.7570   -1.0279 O   0  0  0  0  0  0  0  0  0  0  0  0
    3.6125   -1.3942    0.0924 C   0  0  0  0  0  0  0  0  0  0  0  0
    4.9862   -1.2113    0.7588 C   0  0  0  0  0  0  0  0  0  0  0  0
    4.9812   -0.1033    1.8202 C   0  0  0  0  0  0  0  0  0  0  0  0
    6.3864    0.1117    2.3697 C   0  0  0  0  0  0  0  0  0  0  0  0
    7.3523    0.6065    1.2864 C   0  0  0  0  0  0  0  0  0  0  0  0
    8.7892    0.2087    1.5990 C   0  0  0  0  0  0  0  0  0  0  0  0
    9.0769   -1.1217    1.5934 N   0  0  0  0  0  0  0  0  0  0  0  0
    9.6671    1.0275    1.8535 O   0  0  0  0  0  0  0  0  0  0  0  0
    6.9458    0.2100   -0.1420 C   0  0  0  0  0  0  0  0  0  0  0  0
    6.1469   -1.0899   -0.2475 C   0  0  0  0  0  0  0  0  0  0  0  0
   -1.2819    0.2802   -1.6475 C   0  0  0  0  0  0  0  0  0  0  0  0
   -4.2798    1.2854   -1.0564 N   0  0  0  0  0  0  0  0  0  0  0  0
   -4.0424    2.4145   -1.9536 C   0  0  0  0  0  0  0  0  0  0  0  0
   -4.9657    3.5140   -1.4271 C   0  0  0  0  0  0  0  0  0  0  0  0
   -6.1115    2.7363   -0.7957 C   0  0  0  0  0  0  0  0  0  0  0  0
   -5.3777    1.5746   -0.1288 C   0  0  0  0  0  0  0  0  0  0  0  0
   -6.2352    0.3269    0.0652 C   0  0  0  0  0  0  0  0  0  0  0  0
   -6.5482    0.3733    2.8579 H   0  0  0  0  0  0  0  0  0  0  0  0
   -6.8690   -1.3732    2.8056 H   0  0  0  0  0  0  0  0  0  0  0  0
   -5.7673   -0.6918    4.0142 H   0  0  0  0  0  0  0  0  0  0  0  0
   -4.2365    0.0443    2.1470 H   0  0  0  0  0  0  0  0  0  0  0  0
   -3.8801   -2.0301    3.4905 H   0  0  0  0  0  0  0  0  0  0  0  0
   -4.7546   -2.9711    2.2705 H   0  0  0  0  0  0  0  0  0  0  0  0
   -3.2166   -2.1823    1.8689 H   0  0  0  0  0  0  0  0  0  0  0  0
   -5.9814   -1.7739    0.3889 H   0  0  0  0  0  0  0  0  0  0  0  0
   -3.6929   -1.9781   -0.4725 H   0  0  0  0  0  0  0  0  0  0  0  0
   -3.6840   -1.2217   -3.5356 H   0  0  0  0  0  0  0  0  0  0  0  0
   -1.7294   -1.5997   -5.0085 H   0  0  0  0  0  0  0  0  0  0  0  0
    0.5079   -0.7836   -4.3455 H   0  0  0  0  0  0  0  0  0  0  0  0
    1.8248    0.7610   -2.9272 H   0  0  0  0  0  0  0  0  0  0  0  0
    1.1172    1.4930   -1.4898 H   0  0  0  0  0  0  0  0  0  0  0  0
    1.3258   -1.2671   -0.9810 H   0  0  0  0  0  0  0  0  0  0  0  0
    3.6387   -2.2858   -0.5473 H   0  0  0  0  0  0  0  0  0  0  0  0
    2.8600   -1.5815    0.8694 H   0  0  0  0  0  0  0  0  0  0  0  0
    5.1633   -2.1518    1.3026 H   0  0  0  0  0  0  0  0  0  0  0  0
    4.3081   -0.3836    2.6394 H   0  0  0  0  0  0  0  0  0  0  0  0
    4.6022    0.8410    1.4138 H   0  0  0  0  0  0  0  0  0  0  0  0
    6.3525    0.8478    3.1826 H   0  0  0  0  0  0  0  0  0  0  0  0
    6.7384   -0.8201    2.8290 H   0  0  0  0  0  0  0  0  0  0  0  0
    7.3467    1.7060    1.3154 H   0  0  0  0  0  0  0  0  0  0  0  0
    8.3939   -1.8411    1.4132 H   0  0  0  0  0  0  0  0  0  0  0  0
   10.0298   -1.3924    1.7982 H   0  0  0  0  0  0  0  0  0  0  0  0
    6.3300    1.0193   -0.5541 H   0  0  0  0  0  0  0  0  0  0  0  0
    7.8256    0.1479   -0.7944 H   0  0  0  0  0  0  0  0  0  0  0  0
    5.7891   -1.2074   -1.2775 H   0  0  0  0  0  0  0  0  0  0  0  0
    6.8295   -1.9335   -0.0882 H   0  0  0  0  0  0  0  0  0  0  0  0
   -1.1673    0.8029   -0.6993 H   0  0  0  0  0  0  0  0  0  0  0  0
   -4.3217    2.1436   -2.9781 H   0  0  0  0  0  0  0  0  0  0  0  0
   -2.9992    2.7453   -1.9408 H   0  0  0  0  0  0  0  0  0  0  0  0
   -5.2970    4.1946   -2.2164 H   0  0  0  0  0  0  0  0  0  0  0  0
   -4.4475    4.1041   -0.6614 H   0  0  0  0  0  0  0  0  0  0  0  0
   -6.6839    3.3346   -0.0811 H   0  0  0  0  0  0  0  0  0  0  0  0
   -6.7960    2.3819   -1.5760 H   0  0  0  0  0  0  0  0  0  0  0  0
   -4.9569    1.9068    0.8286 H   0  0  0  0  0  0  0  0  0  0  0  0
   -6.7090    0.0597   -0.8909 H   0  0  0  0  0  0  0  0  0  0  0  0
   -7.0597    0.5258    0.7558 H   0  0  0  0  0  0  0  0  0  0  0  0
  1  2  1  0
  2  3  1  0
  2  4  1  0
  4  5  1  0
  5  6  2  0
  6  7  1  0
  7  8  1  0
  8  9  2  0
  9 10  1  0
 10 11  2  0
 11 12  1  0
 12 13  1  0
 13 14  1  0
 14 15  2  0
 14 16  1  0
 16 17  1  0
 17 18  1  0
 18 19  1  0
 19 20  1  0
 20 21  1  0
 21 22  1  0
 21 23  2  0
 20 24  1  0
 24 25  1  0
 11 26  1  0
  6 27  1  0
 27 28  1  0
 28 29  1  0
 29 30  1  0
 30 31  1  0
 31 32  1  0
 32  4  1  0
 26  7  2  0
 31 27  1  0
 25 17  1  0
  1 33  1  0
  1 34  1  0
  1 35  1  0
  2 36  1  0
  3 37  1  0
  3 38  1  0
  3 39  1  0
  4 40  1  0
  5 41  1  0
  8 42  1  0
  9 43  1  0
 10 44  1  0
 12 45  1  0
 12 46  1  0
 13 47  1  0
 16 48  1  0
 16 49  1  0
 17 50  1  0
 18 51  1  0
 18 52  1  0
 19 53  1  0
 19 54  1  0
 20 55  1  0
 22 56  1  0
 22 57  1  0
 24 58  1  0
 24 59  1  0
 25 60  1  0
 25 61  1  0
 26 62  1  0
 28 63  1  0
 28 64  1  0
 29 65  1  0
 29 66  1  0
 30 67  1  0
 30 68  1  0
 31 69  1  0
 32 70  1  0
 32 71  1  0
M  END
>  <smiles>
CC(C)C1C=C(c2cccc(CNC(=O)CC3CCC(C(N)=O)CC3)c2)N2CCCC2C1

$$$$
