mol_32f4426e53a3
     RDKit          3D

 62 63  0  0  0  0  0  0  0  0999 V2000
   -3.1255    4.7543    2.6662 C   0  0  0  0  0  0  0  0  0  0  0  0
   -2.5464    4.3473    1.4117 N   0  0  0  0  0  0  0  0  0  0  0  0
   -2.5353    3.0233    1.0324 C   0  0  0  0  0  0  0  0  0  0  0  0
   -3.0169    2.1231    1.7107 O   0  0  0  0  0  0  0  0  0  0  0  0
   -1.8900    2.7996   -0.3229 C   0  0  0  0  0  0  0  0  0  0  0  0
   -1.6582    1.3218   -0.6348 C   0  0  0  0  0  0  0  0  0  0  0  0
   -0.4908    0.7405    0.1759 C   0  0  0  0  0  0  0  0  0  0  0  0
   -0.2887   -0.7400   -0.0765 C   0  0  0  0  0  0  0  0  0  0  0  0
   -1.2831   -1.6228    0.3919 C   0  0  0  0  0  0  0  0  0  0  0  0
   -1.1801   -3.0020    0.1808 C   0  0  0  0  0  0  0  0  0  0  0  0
   -2.2145   -3.9312    0.6928 C   0  0  0  0  0  0  0  0  0  0  0  0
   -1.8342   -4.8682    1.3923 O   0  0  0  0  0  0  0  0  0  0  0  0
   -3.5516   -3.7074    0.3696 N   0  0  0  0  0  0  0  0  0  0  0  0
   -4.5713   -4.4874    1.0490 C   0  0  0  0  0  0  0  0  0  0  0  0
   -4.0227   -2.7891   -0.6574 C   0  0  0  0  0  0  0  0  0  0  0  0
   -0.0557   -3.5284   -0.4511 C   0  0  0  0  0  0  0  0  0  0  0  0
    0.9469   -2.6698   -0.9029 C   0  0  0  0  0  0  0  0  0  0  0  0
    0.8447   -1.2764   -0.7284 C   0  0  0  0  0  0  0  0  0  0  0  0
    1.9800   -0.4491   -1.2071 C   0  0  0  0  0  0  0  0  0  0  0  0
    2.0828   -0.3356   -2.7187 C   0  0  0  0  0  0  0  0  0  0  0  0
    1.0916    0.6589   -3.3153 C   0  0  0  0  0  0  0  0  0  0  0  0
    1.3745    0.8355   -4.7004 O   0  0  0  0  0  0  0  0  0  0  0  0
    2.8857    0.0700   -0.3389 C   0  0  0  0  0  0  0  0  0  0  0  0
    4.0436    0.9397   -0.8007 C   0  0  0  0  0  0  0  0  0  0  0  0
    4.5494    1.8631    0.3064 C   0  0  0  0  0  0  0  0  0  0  0  0
    5.0197    1.0886    1.5371 C   0  0  0  0  0  0  0  0  0  0  0  0
    4.2539   -0.2160    1.7588 C   0  0  0  0  0  0  0  0  0  0  0  0
    2.8471   -0.1718    1.1647 C   0  0  0  0  0  0  0  0  0  0  0  0
   -4.1904    4.5064    2.6680 H   0  0  0  0  0  0  0  0  0  0  0  0
   -2.9927    5.8324    2.7812 H   0  0  0  0  0  0  0  0  0  0  0  0
   -2.6276    4.2265    3.4841 H   0  0  0  0  0  0  0  0  0  0  0  0
   -2.1481    5.0503    0.8032 H   0  0  0  0  0  0  0  0  0  0  0  0
   -0.9470    3.3558   -0.3755 H   0  0  0  0  0  0  0  0  0  0  0  0
   -2.5670    3.2226   -1.0748 H   0  0  0  0  0  0  0  0  0  0  0  0
   -1.4392    1.2211   -1.7037 H   0  0  0  0  0  0  0  0  0  0  0  0
   -2.5794    0.7544   -0.4554 H   0  0  0  0  0  0  0  0  0  0  0  0
   -0.6579    0.8787    1.2514 H   0  0  0  0  0  0  0  0  0  0  0  0
    0.4117    1.3134   -0.0562 H   0  0  0  0  0  0  0  0  0  0  0  0
   -2.1375   -1.2302    0.9420 H   0  0  0  0  0  0  0  0  0  0  0  0
   -5.0265   -5.1730    0.3282 H   0  0  0  0  0  0  0  0  0  0  0  0
   -5.3349   -3.8076    1.4388 H   0  0  0  0  0  0  0  0  0  0  0  0
   -4.1607   -5.0673    1.8797 H   0  0  0  0  0  0  0  0  0  0  0  0
   -4.4585   -1.9133   -0.1686 H   0  0  0  0  0  0  0  0  0  0  0  0
   -3.2217   -2.4770   -1.3302 H   0  0  0  0  0  0  0  0  0  0  0  0
   -4.7909   -3.2878   -1.2566 H   0  0  0  0  0  0  0  0  0  0  0  0
    0.0481   -4.6034   -0.5773 H   0  0  0  0  0  0  0  0  0  0  0  0
    1.8284   -3.0981   -1.3771 H   0  0  0  0  0  0  0  0  0  0  0  0
    1.9315   -1.3158   -3.1901 H   0  0  0  0  0  0  0  0  0  0  0  0
    3.0977   -0.0603   -3.0293 H   0  0  0  0  0  0  0  0  0  0  0  0
    1.1649    1.6347   -2.8241 H   0  0  0  0  0  0  0  0  0  0  0  0
    0.0666    0.2878   -3.2245 H   0  0  0  0  0  0  0  0  0  0  0  0
    0.7044    1.4459   -5.0521 H   0  0  0  0  0  0  0  0  0  0  0  0
    4.8641    0.2934   -1.1361 H   0  0  0  0  0  0  0  0  0  0  0  0
    3.7438    1.5684   -1.6466 H   0  0  0  0  0  0  0  0  0  0  0  0
    3.7443    2.5500    0.5989 H   0  0  0  0  0  0  0  0  0  0  0  0
    5.3680    2.4886   -0.0681 H   0  0  0  0  0  0  0  0  0  0  0  0
    4.9193    1.7336    2.4184 H   0  0  0  0  0  0  0  0  0  0  0  0
    6.0884    0.8591    1.4473 H   0  0  0  0  0  0  0  0  0  0  0  0
    4.2040   -0.4331    2.8321 H   0  0  0  0  0  0  0  0  0  0  0  0
    4.8125   -1.0435    1.3018 H   0  0  0  0  0  0  0  0  0  0  0  0
    2.2762    0.6332    1.6436 H   0  0  0  0  0  0  0  0  0  0  0  0
    2.3512   -1.1164    1.4107 H   0  0  0  0  0  0  0  0  0  0  0  0
  1  2  1  0
  2  3  1  0
  3  4  2  0
  3  5  1  0
  5  6  1  0
  6  7  1  0
  7  8  1  0
  8  9  1  0
  9 10  2  0
 10 11  1  0
 11 12  2  0
 11 13  1  0
 13 14  1  0
 13 15  1  0
 10 16  1  0
 16 17  2  0
 17 18  1  0
 18 19  1  0
 19 20  1  0
 20 21  1  0
 21 22  1  0
 19 23  2  3
 23 24  1  0
 24 25  1  0
 25 26  1  0
 26 27  1  0
 27 28  1  0
 18  8  2  0
 28 23  1  0
  1 29  1  0
  1 30  1  0
  1 31  1  0
  2 32  1  0
  5 33  1  0
  5 34  1  0
  6 35  1  0
  6 36  1  0
  7 37  1  0
  7 38  1  0
  9 39  1  0
 14 40  1  0
 14 41  1  0
 14 42  1  0
 15 43  1  0
 15 44  1  0
 15 45  1  0
 16 46  1  0
 17 47  1  0
 20 48  1  0
 20 49  1  0
 21 50  1  0
 21 51  1  0
 22 52  1  0
 24 53  1  0
 24 54  1  0
 25 55  1  0
 25 56  1  0
 26 57  1  0
 26 58  1  0
 27 59  1  0
 27 60  1  0
 28 61  1  0
 28 62  1  0
M  END
>  <smiles>
CNC(=O)CCCc1cc(C(=O)N(C)C)ccc1C(CCO)=C1CCCCC1

$$$$
