mol_8d23819dd3b2
     RDKit          3D

 34 37  0  0  0  0  0  0  0  0999 V2000
   -4.9212    0.0525    0.3316 C   0  0  0  0  0  0  0  0  0  0  0  0
   -3.6903   -0.5459   -0.2864 C   0  0  0  0  0  0  0  0  0  0  0  0
   -3.8337   -1.5425   -1.2487 C   0  0  0  0  0  0  0  0  0  0  0  0
   -2.8076   -2.1512   -1.8705 N   0  0  0  0  0  0  0  0  0  0  0  0
   -1.5664   -1.7468   -1.5191 C   0  0  0  0  0  0  0  0  0  0  0  0
   -1.2769   -0.7587   -0.5690 C   0  0  0  0  0  0  0  0  0  0  0  0
    0.0478   -0.3718   -0.2363 C   0  0  0  0  0  0  0  0  0  0  0  0
    0.2951    0.6208    0.7177 C   0  0  0  0  0  0  0  0  0  0  0  0
   -0.8018    1.2178    1.3432 C   0  0  0  0  0  0  0  0  0  0  0  0
   -0.5677    2.1910    2.2786 O   0  0  0  0  0  0  0  0  0  0  0  0
   -2.1119    0.8545    1.0283 C   0  0  0  0  0  0  0  0  0  0  0  0
   -2.3784   -0.1414    0.0663 C   0  0  0  0  0  0  0  0  0  0  0  0
    1.7092    0.9815    1.0899 C   0  0  0  0  0  0  0  0  0  0  0  0
    1.9061    2.3950    1.0490 O   0  0  0  0  0  0  0  0  0  0  0  0
    2.7418    0.3404    0.2082 C   0  0  0  0  0  0  0  0  0  0  0  0
    4.1019    0.6743    0.3232 C   0  0  0  0  0  0  0  0  0  0  0  0
    5.0577    0.0478   -0.4783 C   0  0  0  0  0  0  0  0  0  0  0  0
    4.6585   -0.9213   -1.3945 C   0  0  0  0  0  0  0  0  0  0  0  0
    5.8334   -1.6995   -2.3818 Cl  0  0  0  0  0  0  0  0  0  0  0  0
    3.3149   -1.2660   -1.5157 C   0  0  0  0  0  0  0  0  0  0  0  0
    2.3611   -0.6327   -0.7147 C   0  0  0  0  0  0  0  0  0  0  0  0
    1.0625   -1.0339   -0.8974 O   0  0  0  0  0  0  0  0  0  0  0  0
   -4.9645    1.1277    0.1301 H   0  0  0  0  0  0  0  0  0  0  0  0
   -4.9268   -0.1195    1.4128 H   0  0  0  0  0  0  0  0  0  0  0  0
   -5.8350   -0.3937   -0.0754 H   0  0  0  0  0  0  0  0  0  0  0  0
   -4.8153   -1.8929   -1.5588 H   0  0  0  0  0  0  0  0  0  0  0  0
   -0.7715   -2.2657   -2.0505 H   0  0  0  0  0  0  0  0  0  0  0  0
   -1.4173    2.4724    2.6626 H   0  0  0  0  0  0  0  0  0  0  0  0
   -2.9354    1.3508    1.5338 H   0  0  0  0  0  0  0  0  0  0  0  0
    1.8882    0.6439    2.1189 H   0  0  0  0  0  0  0  0  0  0  0  0
    1.1198    2.7780    1.4820 H   0  0  0  0  0  0  0  0  0  0  0  0
    4.4141    1.4358    1.0360 H   0  0  0  0  0  0  0  0  0  0  0  0
    6.1050    0.3215   -0.3833 H   0  0  0  0  0  0  0  0  0  0  0  0
    3.0045   -2.0223   -2.2310 H   0  0  0  0  0  0  0  0  0  0  0  0
  1  2  1  0
  2  3  1  0
  3  4  2  0
  4  5  1  0
  5  6  2  0
  6  7  1  0
  7  8  2  0
  8  9  1  0
  9 10  1  0
  9 11  2  0
 11 12  1  0
  8 13  1  0
 13 14  1  0
 13 15  1  0
 15 16  1  0
 16 17  2  0
 17 18  1  0
 18 19  1  0
 18 20  2  0
 20 21  1  0
 21 22  1  0
 12  2  2  0
 21 15  2  0
 12  6  1  0
 22  7  1  0
  1 23  1  0
  1 24  1  0
  1 25  1  0
  3 26  1  0
  5 27  1  0
 10 28  1  0
 11 29  1  0
 13 30  1  0
 14 31  1  0
 16 32  1  0
 17 33  1  0
 20 34  1  0
M  END
>  <smiles>
Cc1cncc2c3c(c(O)cc12)C(O)c1ccc(Cl)cc1O3

$$$$
