mol_8d5bdecf88b1
     RDKit          3D

 54 58  0  0  0  0  0  0  0  0999 V2000
    2.9953    3.8465    2.7232 C   0  0  0  0  0  0  0  0  0  0  0  0
    2.5519    2.5562    2.0470 C   0  0  0  0  0  0  0  0  0  0  0  0
    1.3936    2.7757    1.0614 C   0  0  0  0  0  0  0  0  0  0  0  0
    0.0801    3.1640    1.7915 C   0  0  0  0  0  0  0  0  0  0  0  0
   -0.8779    2.1242    1.4380 N   0  0  0  0  0  0  0  0  0  0  0  0
   -0.3106    1.1978    0.6021 C   0  0  0  0  0  0  0  0  0  0  0  0
   -1.0966    0.2238    0.1337 C   0  0  0  0  0  0  0  0  0  0  0  0
   -0.6997   -0.6896   -0.7705 F   0  0  0  0  0  0  0  0  0  0  0  0
   -2.5241    0.1771    0.6003 C   0  0  0  0  0  0  0  0  0  0  0  0
   -3.4069   -0.8356    0.1987 N   0  0  0  0  0  0  0  0  0  0  0  0
   -2.9546   -2.1010   -0.3859 C   0  0  0  0  0  0  0  0  0  0  0  0
   -3.9569   -3.2235   -0.1320 C   0  0  0  0  0  0  0  0  0  0  0  0
   -5.3360   -2.9007   -0.6977 C   0  0  0  0  0  0  0  0  0  0  0  0
   -5.6397   -1.4055   -0.6732 C   0  0  0  0  0  0  0  0  0  0  0  0
   -4.8529   -0.6779    0.4127 C   0  0  0  0  0  0  0  0  0  0  0  0
   -2.9898    1.0993    1.4060 N   0  0  0  0  0  0  0  0  0  0  0  0
   -2.1880    2.1200    1.8478 C   0  0  0  0  0  0  0  0  0  0  0  0
   -2.6174    3.0064    2.5829 O   0  0  0  0  0  0  0  0  0  0  0  0
    1.0199    1.5187    0.3607 N   0  0  0  0  0  0  0  0  0  0  0  0
    1.9552    0.8318   -0.4209 C   0  0  0  0  0  0  0  0  0  0  0  0
    2.8010    1.5121   -1.3069 C   0  0  0  0  0  0  0  0  0  0  0  0
    3.7487    0.8315   -2.0796 C   0  0  0  0  0  0  0  0  0  0  0  0
    3.8842   -0.5589   -1.9837 C   0  0  0  0  0  0  0  0  0  0  0  0
    4.8298   -1.2604   -2.7496 C   0  0  0  0  0  0  0  0  0  0  0  0
    4.9516   -2.6461   -2.6362 C   0  0  0  0  0  0  0  0  0  0  0  0
    4.1308   -3.3460   -1.7571 C   0  0  0  0  0  0  0  0  0  0  0  0
    3.1862   -2.6615   -0.9906 C   0  0  0  0  0  0  0  0  0  0  0  0
    3.0499   -1.2671   -1.0941 C   0  0  0  0  0  0  0  0  0  0  0  0
    2.1030   -0.5609   -0.3286 C   0  0  0  0  0  0  0  0  0  0  0  0
    3.8477    3.6514    3.3818 H   0  0  0  0  0  0  0  0  0  0  0  0
    3.3052    4.5891    1.9809 H   0  0  0  0  0  0  0  0  0  0  0  0
    2.1968    4.2812    3.3313 H   0  0  0  0  0  0  0  0  0  0  0  0
    2.2669    1.8219    2.8108 H   0  0  0  0  0  0  0  0  0  0  0  0
    3.4195    2.1360    1.5256 H   0  0  0  0  0  0  0  0  0  0  0  0
    1.6459    3.5610    0.3384 H   0  0  0  0  0  0  0  0  0  0  0  0
   -0.3026    4.1306    1.4446 H   0  0  0  0  0  0  0  0  0  0  0  0
    0.1691    3.2008    2.8822 H   0  0  0  0  0  0  0  0  0  0  0  0
   -2.0037   -2.4084    0.0636 H   0  0  0  0  0  0  0  0  0  0  0  0
   -2.7971   -1.9706   -1.4627 H   0  0  0  0  0  0  0  0  0  0  0  0
   -3.5915   -4.1638   -0.5600 H   0  0  0  0  0  0  0  0  0  0  0  0
   -4.0447   -3.3867    0.9502 H   0  0  0  0  0  0  0  0  0  0  0  0
   -5.4134   -3.2628   -1.7299 H   0  0  0  0  0  0  0  0  0  0  0  0
   -6.0929   -3.4474   -0.1227 H   0  0  0  0  0  0  0  0  0  0  0  0
   -5.3832   -0.9743   -1.6498 H   0  0  0  0  0  0  0  0  0  0  0  0
   -6.7154   -1.2481   -0.5352 H   0  0  0  0  0  0  0  0  0  0  0  0
   -5.1389    0.3799    0.3758 H   0  0  0  0  0  0  0  0  0  0  0  0
   -5.1201   -1.0586    1.4055 H   0  0  0  0  0  0  0  0  0  0  0  0
    2.7179    2.5882   -1.4301 H   0  0  0  0  0  0  0  0  0  0  0  0
    4.3769    1.4000   -2.7614 H   0  0  0  0  0  0  0  0  0  0  0  0
    5.4801   -0.7300   -3.4413 H   0  0  0  0  0  0  0  0  0  0  0  0
    5.6873   -3.1773   -3.2343 H   0  0  0  0  0  0  0  0  0  0  0  0
    4.2242   -4.4250   -1.6669 H   0  0  0  0  0  0  0  0  0  0  0  0
    2.5528   -3.2256   -0.3096 H   0  0  0  0  0  0  0  0  0  0  0  0
    1.4831   -1.1120    0.3750 H   0  0  0  0  0  0  0  0  0  0  0  0
  1  2  1  0
  2  3  1  0
  3  4  1  0
  4  5  1  0
  5  6  1  0
  6  7  2  0
  7  8  1  0
  7  9  1  0
  9 10  1  0
 10 11  1  0
 11 12  1  0
 12 13  1  0
 13 14  1  0
 14 15  1  0
  9 16  2  0
 16 17  1  0
 17 18  2  0
  6 19  1  0
 19 20  1  0
 20 21  1  0
 21 22  2  0
 22 23  1  0
 23 24  2  0
 24 25  1  0
 25 26  2  0
 26 27  1  0
 27 28  2  0
 28 29  1  0
 19  3  1  0
 29 20  2  0
 17  5  1  0
 28 23  1  0
 15 10  1  0
  1 30  1  0
  1 31  1  0
  1 32  1  0
  2 33  1  0
  2 34  1  0
  3 35  1  0
  4 36  1  0
  4 37  1  0
 11 38  1  0
 11 39  1  0
 12 40  1  0
 12 41  1  0
 13 42  1  0
 13 43  1  0
 14 44  1  0
 14 45  1  0
 15 46  1  0
 15 47  1  0
 21 48  1  0
 22 49  1  0
 24 50  1  0
 25 51  1  0
 26 52  1  0
 27 53  1  0
 29 54  1  0
M  END
>  <smiles>
CCC1Cn2c(c(F)c(N3CCCCC3)nc2=O)N1c1ccc2ccccc2c1

$$$$
