mol_cc3e7ef6bff3
     RDKit          3D

 63 66  0  0  0  0  0  0  0  0999 V2000
   -3.7036   -3.9091   -1.7124 C   0  0  0  0  0  0  0  0  0  0  0  0
   -2.6403   -4.2632   -0.6841 C   0  0  0  0  0  0  0  0  0  0  0  0
   -1.2714   -3.6315   -0.9640 C   0  0  0  0  0  0  0  0  0  0  0  0
   -1.2460   -2.0845   -0.9782 C   0  0  0  0  0  0  0  0  0  0  0  0
    0.0148   -1.5664   -1.4275 O   0  0  0  0  0  0  0  0  0  0  0  0
    1.1328   -1.7409   -0.5591 C   0  0  0  0  0  0  0  0  0  0  0  0
    2.3871   -1.8876   -1.4294 C   0  0  0  0  0  0  0  0  0  0  0  0
    3.0468   -0.5162   -1.4082 C   0  0  0  0  0  0  0  0  0  0  0  0
    2.8085   -0.0517    0.0261 C   0  0  0  0  0  0  0  0  0  0  0  0
    3.0252    1.4482    0.2449 C   0  0  0  0  0  0  0  0  0  0  0  0
    4.4722    1.8570    0.1162 C   0  0  0  0  0  0  0  0  0  0  0  0
    4.9380    2.4714   -1.0537 C   0  0  0  0  0  0  0  0  0  0  0  0
    6.2795    2.8375   -1.1747 C   0  0  0  0  0  0  0  0  0  0  0  0
    7.1675    2.5920   -0.1292 C   0  0  0  0  0  0  0  0  0  0  0  0
    6.7153    1.9797    1.0381 C   0  0  0  0  0  0  0  0  0  0  0  0
    5.3743    1.6128    1.1606 C   0  0  0  0  0  0  0  0  0  0  0  0
    1.3564   -0.4708    0.2762 C   0  0  0  0  0  0  0  0  0  0  0  0
   -1.7417   -1.3396    0.1902 N   0  0  0  0  0  0  0  0  0  0  0  0
   -1.5651   -1.8552    1.4598 C   0  0  0  0  0  0  0  0  0  0  0  0
   -0.9432   -2.8801    1.7309 O   0  0  0  0  0  0  0  0  0  0  0  0
   -2.1349   -1.1711    2.4880 N   0  0  0  0  0  0  0  0  0  0  0  0
   -2.8614   -0.0178    2.4235 C   0  0  0  0  0  0  0  0  0  0  0  0
   -3.3916    0.4163    3.4388 O   0  0  0  0  0  0  0  0  0  0  0  0
   -2.9430    0.6369    1.0928 C   0  0  0  0  0  0  0  0  0  0  0  0
   -3.5703    1.9061    0.9227 C   0  0  0  0  0  0  0  0  0  0  0  0
   -4.2144    2.6403    2.0876 C   0  0  0  0  0  0  0  0  0  0  0  0
   -4.8505    4.0002    1.8097 C   0  0  0  0  0  0  0  0  0  0  0  0
   -3.5735    2.4739   -0.3604 C   0  0  0  0  0  0  0  0  0  0  0  0
   -2.9700    1.8260   -1.4310 C   0  0  0  0  0  0  0  0  0  0  0  0
   -2.3637    0.5858   -1.2486 C   0  0  0  0  0  0  0  0  0  0  0  0
   -2.3532   -0.0459    0.0059 C   0  0  0  0  0  0  0  0  0  0  0  0
   -3.3603   -4.1322   -2.7273 H   0  0  0  0  0  0  0  0  0  0  0  0
   -4.6126   -4.4904   -1.5269 H   0  0  0  0  0  0  0  0  0  0  0  0
   -3.9747   -2.8505   -1.6608 H   0  0  0  0  0  0  0  0  0  0  0  0
   -2.9984   -3.9869    0.3127 H   0  0  0  0  0  0  0  0  0  0  0  0
   -2.5170   -5.3531   -0.6776 H   0  0  0  0  0  0  0  0  0  0  0  0
   -0.9152   -3.9814   -1.9431 H   0  0  0  0  0  0  0  0  0  0  0  0
   -0.5443   -4.0436   -0.2585 H   0  0  0  0  0  0  0  0  0  0  0  0
   -1.9317   -1.8531   -1.7987 H   0  0  0  0  0  0  0  0  0  0  0  0
    1.0294   -2.6289    0.0688 H   0  0  0  0  0  0  0  0  0  0  0  0
    3.0665   -2.6173   -0.9720 H   0  0  0  0  0  0  0  0  0  0  0  0
    2.1699   -2.2154   -2.4508 H   0  0  0  0  0  0  0  0  0  0  0  0
    2.5573    0.1512   -2.1277 H   0  0  0  0  0  0  0  0  0  0  0  0
    4.1096   -0.5761   -1.6611 H   0  0  0  0  0  0  0  0  0  0  0  0
    3.4592   -0.6264    0.6999 H   0  0  0  0  0  0  0  0  0  0  0  0
    2.6738    1.7299    1.2463 H   0  0  0  0  0  0  0  0  0  0  0  0
    2.4123    2.0294   -0.4564 H   0  0  0  0  0  0  0  0  0  0  0  0
    4.2585    2.6661   -1.8802 H   0  0  0  0  0  0  0  0  0  0  0  0
    6.6317    3.3134   -2.0860 H   0  0  0  0  0  0  0  0  0  0  0  0
    8.2118    2.8772   -0.2242 H   0  0  0  0  0  0  0  0  0  0  0  0
    7.4072    1.7871    1.8537 H   0  0  0  0  0  0  0  0  0  0  0  0
    5.0358    1.1345    2.0769 H   0  0  0  0  0  0  0  0  0  0  0  0
    1.1951   -0.6635    1.3422 H   0  0  0  0  0  0  0  0  0  0  0  0
    0.6648    0.3252   -0.0225 H   0  0  0  0  0  0  0  0  0  0  0  0
   -2.0361   -1.5863    3.4018 H   0  0  0  0  0  0  0  0  0  0  0  0
   -3.4493    2.8006    2.8567 H   0  0  0  0  0  0  0  0  0  0  0  0
   -5.0033    2.0006    2.5009 H   0  0  0  0  0  0  0  0  0  0  0  0
   -5.6642    3.9198    1.0814 H   0  0  0  0  0  0  0  0  0  0  0  0
   -4.1133    4.7171    1.4335 H   0  0  0  0  0  0  0  0  0  0  0  0
   -5.2714    4.4107    2.7336 H   0  0  0  0  0  0  0  0  0  0  0  0
   -4.0335    3.4401   -0.5533 H   0  0  0  0  0  0  0  0  0  0  0  0
   -2.9630    2.2931   -2.4136 H   0  0  0  0  0  0  0  0  0  0  0  0
   -1.8755    0.1568   -2.1191 H   0  0  0  0  0  0  0  0  0  0  0  0
  1  2  1  0
  2  3  1  0
  3  4  1  0
  4  5  1  0
  5  6  1  0
  6  7  1  0
  7  8  1  0
  8  9  1  0
  9 10  1  0
 10 11  1  0
 11 12  2  0
 12 13  1  0
 13 14  2  0
 14 15  1  0
 15 16  2  0
  9 17  1  0
  4 18  1  0
 18 19  1  0
 19 20  2  0
 19 21  1  0
 21 22  1  0
 22 23  2  0
 22 24  1  0
 24 25  1  0
 25 26  1  0
 26 27  1  0
 25 28  2  0
 28 29  1  0
 29 30  2  0
 30 31  1  0
 17  6  1  0
 31 18  1  0
 16 11  1  0
 31 24  2  0
  1 32  1  0
  1 33  1  0
  1 34  1  0
  2 35  1  0
  2 36  1  0
  3 37  1  0
  3 38  1  0
  4 39  1  0
  6 40  1  0
  7 41  1  0
  7 42  1  0
  8 43  1  0
  8 44  1  0
  9 45  1  0
 10 46  1  0
 10 47  1  0
 12 48  1  0
 13 49  1  0
 14 50  1  0
 15 51  1  0
 16 52  1  0
 17 53  1  0
 17 54  1  0
 21 55  1  0
 26 56  1  0
 26 57  1  0
 27 58  1  0
 27 59  1  0
 27 60  1  0
 28 61  1  0
 29 62  1  0
 30 63  1  0
M  END
>  <smiles>
CCCC(OC1CCC(Cc2ccccc2)C1)n1c(=O)[nH]c(=O)c2c(CC)cccc21

$$$$
