mol_1353d374fa1d
     RDKit          3D

 72 75  0  0  0  0  0  0  0  0999 V2000
   -5.6675   -3.2110   -0.4411 C   0  0  0  0  0  0  0  0  0  0  0  0
   -4.6463   -2.1880   -0.9252 C   0  0  0  0  0  0  0  0  0  0  0  0
   -5.1413   -0.7492   -0.7519 C   0  0  0  0  0  0  0  0  0  0  0  0
   -3.9005   -0.0184   -0.9608 N   0  0  0  0  0  0  0  0  0  0  0  0
   -3.9370    1.4193   -0.6813 C   0  0  0  0  0  0  0  0  0  0  0  0
   -2.5229    2.0343   -0.8704 C   0  0  0  0  0  0  0  0  0  0  0  0
   -1.5072    1.2826   -0.1084 N   0  0  0  0  0  0  0  0  0  0  0  0
   -1.5317   -0.1708   -0.3630 C   0  0  0  0  0  0  0  0  0  0  0  0
   -2.9277   -0.7105   -0.0746 C   0  0  0  0  0  0  0  0  0  0  0  0
   -3.2436   -2.2332   -0.2254 C   0  0  0  0  0  0  0  0  0  0  0  0
   -3.4207   -2.8415    1.0533 O   0  0  0  0  0  0  0  0  0  0  0  0
   -2.4496   -3.0521   -1.0726 O   0  0  0  0  0  0  0  0  0  0  0  0
   -1.0695   -3.2831   -0.8471 C   0  0  0  0  0  0  0  0  0  0  0  0
   -0.6888   -3.8206    0.5301 C   0  0  0  0  0  0  0  0  0  0  0  0
    0.7512   -4.3504    0.6041 C   0  0  0  0  0  0  0  0  0  0  0  0
    1.8450   -3.3608    0.1828 C   0  0  0  0  0  0  0  0  0  0  0  0
    1.9369   -2.1329    1.0951 C   0  0  0  0  0  0  0  0  0  0  0  0
    2.8613   -1.0646    0.5615 C   0  0  0  0  0  0  0  0  0  0  0  0
    3.9910   -0.6735    1.2876 C   0  0  0  0  0  0  0  0  0  0  0  0
    4.8132    0.3568    0.8231 C   0  0  0  0  0  0  0  0  0  0  0  0
    4.5206    1.0195   -0.3754 C   0  0  0  0  0  0  0  0  0  0  0  0
    3.4045    0.6111   -1.1147 C   0  0  0  0  0  0  0  0  0  0  0  0
    2.5769   -0.4101   -0.6442 C   0  0  0  0  0  0  0  0  0  0  0  0
    5.3954    2.1545   -0.8527 C   0  0  0  0  0  0  0  0  0  0  0  0
    4.6420    3.4768   -1.0403 C   0  0  0  0  0  0  0  0  0  0  0  0
    4.0962    4.0561    0.2683 C   0  0  0  0  0  0  0  0  0  0  0  0
    2.6891    4.5761    0.0691 C   0  0  0  0  0  0  0  0  0  0  0  0
    2.4611    5.7435   -0.2310 O   0  0  0  0  0  0  0  0  0  0  0  0
    1.7131    3.6168    0.2169 N   0  0  0  0  0  0  0  0  0  0  0  0
    0.3046    3.9012    0.0065 C   0  0  0  0  0  0  0  0  0  0  0  0
   -0.5761    3.2739    1.0767 C   0  0  0  0  0  0  0  0  0  0  0  0
   -0.6756    1.7775    0.8784 C   0  0  0  0  0  0  0  0  0  0  0  0
    0.0097    1.0323    1.5833 O   0  0  0  0  0  0  0  0  0  0  0  0
   -5.9369   -3.0525    0.6083 H   0  0  0  0  0  0  0  0  0  0  0  0
   -6.5873   -3.1399   -1.0314 H   0  0  0  0  0  0  0  0  0  0  0  0
   -5.2774   -4.2283   -0.5477 H   0  0  0  0  0  0  0  0  0  0  0  0
   -4.5022   -2.3600   -2.0034 H   0  0  0  0  0  0  0  0  0  0  0  0
   -5.5595   -0.5815    0.2485 H   0  0  0  0  0  0  0  0  0  0  0  0
   -5.8971   -0.4929   -1.5011 H   0  0  0  0  0  0  0  0  0  0  0  0
   -4.6345    1.9169   -1.3640 H   0  0  0  0  0  0  0  0  0  0  0  0
   -4.2798    1.6074    0.3441 H   0  0  0  0  0  0  0  0  0  0  0  0
   -2.2314    1.9780   -1.9264 H   0  0  0  0  0  0  0  0  0  0  0  0
   -2.5452    3.0888   -0.5944 H   0  0  0  0  0  0  0  0  0  0  0  0
   -1.2505   -0.3152   -1.4126 H   0  0  0  0  0  0  0  0  0  0  0  0
   -0.7986   -0.6757    0.2656 H   0  0  0  0  0  0  0  0  0  0  0  0
   -3.1723   -0.4348    0.9645 H   0  0  0  0  0  0  0  0  0  0  0  0
   -2.7659   -2.4650    1.6602 H   0  0  0  0  0  0  0  0  0  0  0  0
   -0.4998   -2.3887   -1.0990 H   0  0  0  0  0  0  0  0  0  0  0  0
   -0.7760   -4.0276   -1.5968 H   0  0  0  0  0  0  0  0  0  0  0  0
   -1.3759   -4.6297    0.8060 H   0  0  0  0  0  0  0  0  0  0  0  0
   -0.8209   -3.0410    1.2855 H   0  0  0  0  0  0  0  0  0  0  0  0
    0.8285   -5.2385   -0.0357 H   0  0  0  0  0  0  0  0  0  0  0  0
    0.9476   -4.6904    1.6283 H   0  0  0  0  0  0  0  0  0  0  0  0
    1.6868   -3.0695   -0.8613 H   0  0  0  0  0  0  0  0  0  0  0  0
    2.8112   -3.8820    0.1992 H   0  0  0  0  0  0  0  0  0  0  0  0
    0.9558   -1.6731    1.2409 H   0  0  0  0  0  0  0  0  0  0  0  0
    2.2672   -2.4553    2.0906 H   0  0  0  0  0  0  0  0  0  0  0  0
    4.2337   -1.1580    2.2307 H   0  0  0  0  0  0  0  0  0  0  0  0
    5.6789    0.6451    1.4154 H   0  0  0  0  0  0  0  0  0  0  0  0
    3.1607    1.0923   -2.0591 H   0  0  0  0  0  0  0  0  0  0  0  0
    1.6988   -0.6832   -1.2240 H   0  0  0  0  0  0  0  0  0  0  0  0
    6.2282    2.3122   -0.1560 H   0  0  0  0  0  0  0  0  0  0  0  0
    5.8473    1.8566   -1.8073 H   0  0  0  0  0  0  0  0  0  0  0  0
    3.8437    3.3520   -1.7820 H   0  0  0  0  0  0  0  0  0  0  0  0
    5.3373    4.2065   -1.4750 H   0  0  0  0  0  0  0  0  0  0  0  0
    4.7254    4.8878    0.6059 H   0  0  0  0  0  0  0  0  0  0  0  0
    4.0876    3.3235    1.0823 H   0  0  0  0  0  0  0  0  0  0  0  0
    1.9928    2.6587    0.4167 H   0  0  0  0  0  0  0  0  0  0  0  0
    0.0556    3.5304   -0.9933 H   0  0  0  0  0  0  0  0  0  0  0  0
    0.1505    4.9854    0.0053 H   0  0  0  0  0  0  0  0  0  0  0  0
   -1.5743    3.7188    1.0808 H   0  0  0  0  0  0  0  0  0  0  0  0
   -0.1584    3.4605    2.0739 H   0  0  0  0  0  0  0  0  0  0  0  0
  1  2  1  0
  2  3  1  0
  3  4  1  0
  4  5  1  0
  5  6  1  0
  6  7  1  0
  7  8  1  0
  8  9  1  0
  9 10  1  0
 10 11  1  0
 10 12  1  0
 12 13  1  0
 13 14  1  0
 14 15  1  0
 15 16  1  0
 16 17  1  0
 17 18  1  0
 18 19  1  0
 19 20  2  0
 20 21  1  0
 21 22  2  0
 22 23  1  0
 21 24  1  0
 24 25  1  0
 25 26  1  0
 26 27  1  0
 27 28  2  0
 27 29  1  0
 29 30  1  0
 30 31  1  0
 31 32  1  0
 32 33  2  0
 10  2  1  0
 23 18  2  0
  9  4  1  0
 32  7  1  0
  1 34  1  0
  1 35  1  0
  1 36  1  0
  2 37  1  0
  3 38  1  0
  3 39  1  0
  5 40  1  0
  5 41  1  0
  6 42  1  0
  6 43  1  0
  8 44  1  0
  8 45  1  0
  9 46  1  0
 11 47  1  0
 13 48  1  0
 13 49  1  0
 14 50  1  0
 14 51  1  0
 15 52  1  0
 15 53  1  0
 16 54  1  0
 16 55  1  0
 17 56  1  0
 17 57  1  0
 19 58  1  0
 20 59  1  0
 22 60  1  0
 23 61  1  0
 24 62  1  0
 24 63  1  0
 25 64  1  0
 25 65  1  0
 26 66  1  0
 26 67  1  0
 29 68  1  0
 30 69  1  0
 30 70  1  0
 31 71  1  0
 31 72  1  0
M  END
>  <smiles>
CC1CN2CCN3CC2C1(O)OCCCCCc1ccc(cc1)CCCC(=O)NCCC3=O

$$$$
