mol_8f9f06b5d3c7
     RDKit          3D

 33 36  0  0  0  0  0  0  0  0999 V2000
   -4.9376   -0.8923    0.3998 O   0  0  0  0  0  0  0  0  0  0  0  0
   -4.0752   -0.0270    0.2932 C   0  0  0  0  0  0  0  0  0  0  0  0
   -4.3935    1.3072    0.2750 N   0  0  0  0  0  0  0  0  0  0  0  0
   -3.4732    2.3085    0.1493 C   0  0  0  0  0  0  0  0  0  0  0  0
   -2.1716    2.0174    0.0506 C   0  0  0  0  0  0  0  0  0  0  0  0
   -1.7055    0.6345    0.0835 C   0  0  0  0  0  0  0  0  0  0  0  0
   -2.6214   -0.3569    0.1740 C   0  0  0  0  0  0  0  0  0  0  0  0
   -2.2587   -1.8113    0.1391 C   0  0  0  0  0  0  0  0  0  0  0  0
   -1.0088   -2.0566   -0.7066 C   0  0  0  0  0  0  0  0  0  0  0  0
    0.0897   -1.0682   -0.3954 C   0  0  0  0  0  0  0  0  0  0  0  0
   -0.2676    0.2349    0.0129 C   0  0  0  0  0  0  0  0  0  0  0  0
    0.7520    1.1340    0.3688 C   0  0  0  0  0  0  0  0  0  0  0  0
    2.1113    0.7861    0.2896 C   0  0  0  0  0  0  0  0  0  0  0  0
    3.1140    1.7025    0.6528 C   0  0  0  0  0  0  0  0  0  0  0  0
    4.4642    1.3623    0.5643 C   0  0  0  0  0  0  0  0  0  0  0  0
    4.8307    0.1011    0.1109 C   0  0  0  0  0  0  0  0  0  0  0  0
    3.8457   -0.8189   -0.2512 C   0  0  0  0  0  0  0  0  0  0  0  0
    2.4739   -0.4978   -0.1671 C   0  0  0  0  0  0  0  0  0  0  0  0
    1.4499   -1.4026   -0.5200 C   0  0  0  0  0  0  0  0  0  0  0  0
    1.8298   -2.6357   -0.9934 O   0  0  0  0  0  0  0  0  0  0  0  0
   -5.3799    1.5228    0.3531 H   0  0  0  0  0  0  0  0  0  0  0  0
   -3.8512    3.3252    0.1253 H   0  0  0  0  0  0  0  0  0  0  0  0
   -1.4555    2.8209   -0.0797 H   0  0  0  0  0  0  0  0  0  0  0  0
   -2.0929   -2.1545    1.1684 H   0  0  0  0  0  0  0  0  0  0  0  0
   -3.0708   -2.4195   -0.2753 H   0  0  0  0  0  0  0  0  0  0  0  0
   -0.6786   -3.0839   -0.5151 H   0  0  0  0  0  0  0  0  0  0  0  0
   -1.2515   -1.9778   -1.7739 H   0  0  0  0  0  0  0  0  0  0  0  0
    0.4973    2.1260    0.7340 H   0  0  0  0  0  0  0  0  0  0  0  0
    2.8492    2.6958    1.0090 H   0  0  0  0  0  0  0  0  0  0  0  0
    5.2270    2.0819    0.8492 H   0  0  0  0  0  0  0  0  0  0  0  0
    5.8800   -0.1720    0.0399 H   0  0  0  0  0  0  0  0  0  0  0  0
    4.1509   -1.8040   -0.5992 H   0  0  0  0  0  0  0  0  0  0  0  0
    1.1277   -2.9821   -1.5659 H   0  0  0  0  0  0  0  0  0  0  0  0
  1  2  2  0
  2  3  1  0
  3  4  1  0
  4  5  2  0
  5  6  1  0
  6  7  2  0
  7  8  1  0
  8  9  1  0
  9 10  1  0
 10 11  1  0
 11 12  2  0
 12 13  1  0
 13 14  2  0
 14 15  1  0
 15 16  2  0
 16 17  1  0
 17 18  2  0
 18 19  1  0
 19 20  1  0
  7  2  1  0
 19 10  2  0
 11  6  1  0
 18 13  1  0
  3 21  1  0
  4 22  1  0
  5 23  1  0
  8 24  1  0
  8 25  1  0
  9 26  1  0
  9 27  1  0
 12 28  1  0
 14 29  1  0
 15 30  1  0
 16 31  1  0
 17 32  1  0
 20 33  1  0
M  END
>  <smiles>
O=c1[nH]ccc2c1CCc1c-2cc2ccccc2c1O

$$$$
