mol_017f067fd2ed
     RDKit          3D

 60 63  0  0  0  0  0  0  0  0999 V2000
    3.9483    3.4116   -0.5558 O   0  0  0  0  0  0  0  0  0  0  0  0
    3.2927    2.9119    0.3536 C   0  0  0  0  0  0  0  0  0  0  0  0
    2.0235    3.5485    0.8731 C   0  0  0  0  0  0  0  0  0  0  0  0
    1.0217    3.7565   -0.2527 C   0  0  0  0  0  0  0  0  0  0  0  0
    0.3836    2.5007   -0.5061 O   0  0  0  0  0  0  0  0  0  0  0  0
   -0.8629    2.5458   -1.0863 C   0  0  0  0  0  0  0  0  0  0  0  0
   -1.2690    3.5811   -1.9301 C   0  0  0  0  0  0  0  0  0  0  0  0
   -2.5401    3.5587   -2.4908 C   0  0  0  0  0  0  0  0  0  0  0  0
   -3.4098    2.5052   -2.2073 C   0  0  0  0  0  0  0  0  0  0  0  0
   -3.0299    1.4383   -1.3589 C   0  0  0  0  0  0  0  0  0  0  0  0
   -3.8727    0.3462   -1.0362 C   0  0  0  0  0  0  0  0  0  0  0  0
   -5.1693    0.2905   -1.4896 O   0  0  0  0  0  0  0  0  0  0  0  0
   -3.4390   -0.7306   -0.2419 C   0  0  0  0  0  0  0  0  0  0  0  0
   -2.1255   -0.7474    0.2573 C   0  0  0  0  0  0  0  0  0  0  0  0
   -1.3075    0.3576   -0.0257 C   0  0  0  0  0  0  0  0  0  0  0  0
   -1.7251    1.4513   -0.8184 C   0  0  0  0  0  0  0  0  0  0  0  0
   -1.6301   -1.9299    1.0353 C   0  0  0  0  0  0  0  0  0  0  0  0
   -2.5535   -2.7700    1.5591 C   0  0  0  0  0  0  0  0  0  0  0  0
   -2.1729   -3.9816    2.3141 C   0  0  0  0  0  0  0  0  0  0  0  0
   -1.2878   -4.7715    2.0454 O   0  0  0  0  0  0  0  0  0  0  0  0
   -2.9553   -4.1465    3.3944 O   0  0  0  0  0  0  0  0  0  0  0  0
   -4.0316   -2.5673    1.3637 C   0  0  0  0  0  0  0  0  0  0  0  0
   -4.3446   -1.9077    0.0240 C   0  0  0  0  0  0  0  0  0  0  0  0
   -0.1290   -2.0964    1.2157 C   0  0  0  0  0  0  0  0  0  0  0  0
    0.5421   -2.5983   -0.0691 C   0  0  0  0  0  0  0  0  0  0  0  0
    2.0716   -2.5800   -0.0044 C   0  0  0  0  0  0  0  0  0  0  0  0
    2.6567   -1.1637   -0.0773 C   0  0  0  0  0  0  0  0  0  0  0  0
    4.1791   -1.2081   -0.2221 C   0  0  0  0  0  0  0  0  0  0  0  0
    4.8248    0.1561   -0.4906 C   0  0  0  0  0  0  0  0  0  0  0  0
    4.9031    1.0762    0.7273 C   0  0  0  0  0  0  0  0  0  0  0  0
    3.6644    1.7649    1.0197 N   0  0  0  0  0  0  0  0  0  0  0  0
    1.5842    2.9420    1.6725 H   0  0  0  0  0  0  0  0  0  0  0  0
    2.3115    4.5150    1.3023 H   0  0  0  0  0  0  0  0  0  0  0  0
    0.2854    4.4962    0.0858 H   0  0  0  0  0  0  0  0  0  0  0  0
    1.5052    4.1129   -1.1688 H   0  0  0  0  0  0  0  0  0  0  0  0
   -0.6039    4.3997   -2.1859 H   0  0  0  0  0  0  0  0  0  0  0  0
   -2.8521    4.3559   -3.1612 H   0  0  0  0  0  0  0  0  0  0  0  0
   -4.3824    2.5174   -2.6918 H   0  0  0  0  0  0  0  0  0  0  0  0
   -5.4939    1.1983   -1.5941 H   0  0  0  0  0  0  0  0  0  0  0  0
   -0.2918    0.3869    0.3576 H   0  0  0  0  0  0  0  0  0  0  0  0
   -2.6104   -4.9664    3.8044 H   0  0  0  0  0  0  0  0  0  0  0  0
   -4.4105   -1.9471    2.1865 H   0  0  0  0  0  0  0  0  0  0  0  0
   -4.5707   -3.5216    1.4061 H   0  0  0  0  0  0  0  0  0  0  0  0
   -5.3981   -1.6062    0.0353 H   0  0  0  0  0  0  0  0  0  0  0  0
   -4.2168   -2.6306   -0.7919 H   0  0  0  0  0  0  0  0  0  0  0  0
    0.3133   -1.1579    1.5628 H   0  0  0  0  0  0  0  0  0  0  0  0
    0.1056   -2.7927    2.0279 H   0  0  0  0  0  0  0  0  0  0  0  0
    0.2163   -2.0168   -0.9398 H   0  0  0  0  0  0  0  0  0  0  0  0
    0.2166   -3.6306   -0.2515 H   0  0  0  0  0  0  0  0  0  0  0  0
    2.4497   -3.1647   -0.8523 H   0  0  0  0  0  0  0  0  0  0  0  0
    2.4170   -3.0830    0.9066 H   0  0  0  0  0  0  0  0  0  0  0  0
    2.3852   -0.6096    0.8254 H   0  0  0  0  0  0  0  0  0  0  0  0
    2.2243   -0.6311   -0.9328 H   0  0  0  0  0  0  0  0  0  0  0  0
    4.4304   -1.8628   -1.0665 H   0  0  0  0  0  0  0  0  0  0  0  0
    4.6256   -1.6652    0.6692 H   0  0  0  0  0  0  0  0  0  0  0  0
    5.8547   -0.0381   -0.8170 H   0  0  0  0  0  0  0  0  0  0  0  0
    4.3207    0.6540   -1.3271 H   0  0  0  0  0  0  0  0  0  0  0  0
    5.1902    0.5171    1.6239 H   0  0  0  0  0  0  0  0  0  0  0  0
    5.6737    1.8360    0.5520 H   0  0  0  0  0  0  0  0  0  0  0  0
    3.0653    1.3908    1.7434 H   0  0  0  0  0  0  0  0  0  0  0  0
  1  2  2  0
  2  3  1  0
  3  4  1  0
  4  5  1  0
  5  6  1  0
  6  7  1  0
  7  8  2  0
  8  9  1  0
  9 10  2  0
 10 11  1  0
 11 12  1  0
 11 13  2  0
 13 14  1  0
 14 15  2  0
 15 16  1  0
 14 17  1  0
 17 18  2  0
 18 19  1  0
 19 20  2  0
 19 21  1  0
 18 22  1  0
 22 23  1  0
 17 24  1  0
 24 25  1  0
 25 26  1  0
 26 27  1  0
 27 28  1  0
 28 29  1  0
 29 30  1  0
 30 31  1  0
 31  2  1  0
 16  6  2  0
 16 10  1  0
 23 13  1  0
  3 32  1  0
  3 33  1  0
  4 34  1  0
  4 35  1  0
  7 36  1  0
  8 37  1  0
  9 38  1  0
 12 39  1  0
 15 40  1  0
 21 41  1  0
 22 42  1  0
 22 43  1  0
 23 44  1  0
 23 45  1  0
 24 46  1  0
 24 47  1  0
 25 48  1  0
 25 49  1  0
 26 50  1  0
 26 51  1  0
 27 52  1  0
 27 53  1  0
 28 54  1  0
 28 55  1  0
 29 56  1  0
 29 57  1  0
 30 58  1  0
 30 59  1  0
 31 60  1  0
M  END
>  <smiles>
O=C1CCOc2cccc3c(O)c4c(cc23)C(=C(C(=O)O)CC4)CCCCCCCN1

$$$$
