mol_c12e1dcd36d7
     RDKit          3D

 52 58  0  0  0  0  0  0  0  0999 V2000
    2.5949   -2.6446    0.1225 O   0  0  0  0  0  0  0  0  0  0  0  0
    2.3790   -1.4420    0.0251 C   0  0  0  0  0  0  0  0  0  0  0  0
    3.3537   -0.5242   -0.2897 N   0  0  0  0  0  0  0  0  0  0  0  0
    4.7213   -0.9388   -0.4948 C   0  0  0  0  0  0  0  0  0  0  0  0
    5.6136    0.2578   -0.6844 C   0  0  0  0  0  0  0  0  0  0  0  0
    6.1807    0.9028    0.4239 C   0  0  0  0  0  0  0  0  0  0  0  0
    6.9814    2.0328    0.2514 C   0  0  0  0  0  0  0  0  0  0  0  0
    7.2158    2.5331   -1.0281 C   0  0  0  0  0  0  0  0  0  0  0  0
    6.6482    1.9065   -2.1361 C   0  0  0  0  0  0  0  0  0  0  0  0
    5.8473    0.7762   -1.9659 C   0  0  0  0  0  0  0  0  0  0  0  0
    1.0005   -0.9104    0.2169 C   0  0  0  0  0  0  0  0  0  0  0  0
    0.7661    0.3827    0.6642 C   0  0  0  0  0  0  0  0  0  0  0  0
   -0.5540    0.7836    0.7904 C   0  0  0  0  0  0  0  0  0  0  0  0
   -1.6493   -0.0750    0.4998 C   0  0  0  0  0  0  0  0  0  0  0  0
   -1.4505   -1.3954    0.1125 C   0  0  0  0  0  0  0  0  0  0  0  0
   -0.0883   -1.7726   -0.0427 C   0  0  0  0  0  0  0  0  0  0  0  0
   -2.5566   -2.3501   -0.1441 C   0  0  0  0  0  0  0  0  0  0  0  0
   -2.2844   -3.7340   -0.3500 C   0  0  0  0  0  0  0  0  0  0  0  0
   -3.2684   -4.6809   -0.6856 C   0  0  0  0  0  0  0  0  0  0  0  0
   -4.5821   -4.2828   -0.8256 C   0  0  0  0  0  0  0  0  0  0  0  0
   -4.8604   -2.9535   -0.5858 C   0  0  0  0  0  0  0  0  0  0  0  0
   -6.1386   -2.4567   -0.6758 O   0  0  0  0  0  0  0  0  0  0  0  0
   -5.9643   -1.1185   -0.3272 C   0  0  0  0  0  0  0  0  0  0  0  0
   -6.9352   -0.3709   -0.3480 O   0  0  0  0  0  0  0  0  0  0  0  0
   -4.6234   -0.8229    0.0018 N   0  0  0  0  0  0  0  0  0  0  0  0
   -3.9068   -2.0063   -0.2280 C   0  0  0  0  0  0  0  0  0  0  0  0
   -4.1653    0.3984    0.4865 C   0  0  0  0  0  0  0  0  0  0  0  0
   -2.8698    0.7144    0.7052 C   0  0  0  0  0  0  0  0  0  0  0  0
   -2.4500    1.9736    1.1541 N   0  0  0  0  0  0  0  0  0  0  0  0
   -3.3170    3.0991    1.4167 C   0  0  0  0  0  0  0  0  0  0  0  0
   -4.7429    2.6813    1.2557 C   0  0  0  0  0  0  0  0  0  0  0  0
   -5.1235    1.4602    0.8393 C   0  0  0  0  0  0  0  0  0  0  0  0
   -1.0140    2.1370    1.2445 C   0  0  0  0  0  0  0  0  0  0  0  0
    3.1204    0.4403   -0.4769 H   0  0  0  0  0  0  0  0  0  0  0  0
    4.7571   -1.5957   -1.3720 H   0  0  0  0  0  0  0  0  0  0  0  0
    5.0480   -1.5362    0.3648 H   0  0  0  0  0  0  0  0  0  0  0  0
    6.0016    0.5245    1.4284 H   0  0  0  0  0  0  0  0  0  0  0  0
    7.4235    2.5224    1.1154 H   0  0  0  0  0  0  0  0  0  0  0  0
    7.8415    3.4118   -1.1620 H   0  0  0  0  0  0  0  0  0  0  0  0
    6.8303    2.2979   -3.1338 H   0  0  0  0  0  0  0  0  0  0  0  0
    5.4074    0.2994   -2.8396 H   0  0  0  0  0  0  0  0  0  0  0  0
    1.5710    1.0604    0.9237 H   0  0  0  0  0  0  0  0  0  0  0  0
    0.1759   -2.7670   -0.3950 H   0  0  0  0  0  0  0  0  0  0  0  0
   -1.2779   -4.1333   -0.2467 H   0  0  0  0  0  0  0  0  0  0  0  0
   -2.9902   -5.7211   -0.8378 H   0  0  0  0  0  0  0  0  0  0  0  0
   -5.3644   -4.9840   -1.0933 H   0  0  0  0  0  0  0  0  0  0  0  0
   -3.0965    3.9188    0.7242 H   0  0  0  0  0  0  0  0  0  0  0  0
   -3.1573    3.4615    2.4381 H   0  0  0  0  0  0  0  0  0  0  0  0
   -5.5011    3.4150    1.5109 H   0  0  0  0  0  0  0  0  0  0  0  0
   -6.1885    1.2743    0.8116 H   0  0  0  0  0  0  0  0  0  0  0  0
   -0.6576    2.9196    0.5674 H   0  0  0  0  0  0  0  0  0  0  0  0
   -0.7009    2.3364    2.2739 H   0  0  0  0  0  0  0  0  0  0  0  0
  1  2  2  0
  2  3  1  0
  3  4  1  0
  4  5  1  0
  5  6  2  0
  6  7  1  0
  7  8  2  0
  8  9  1  0
  9 10  2  0
  2 11  1  0
 11 12  2  0
 12 13  1  0
 13 14  2  0
 14 15  1  0
 15 16  2  0
 15 17  1  0
 17 18  2  0
 18 19  1  0
 19 20  2  0
 20 21  1  0
 21 22  1  0
 22 23  1  0
 23 24  2  0
 23 25  1  0
 25 26  1  0
 25 27  1  0
 27 28  2  0
 28 29  1  0
 29 30  1  0
 30 31  1  0
 31 32  2  0
 29 33  1  0
 10  5  1  0
 16 11  1  0
 26 17  1  0
 32 27  1  0
 33 13  1  0
 28 14  1  0
 26 21  2  0
  3 34  1  0
  4 35  1  0
  4 36  1  0
  6 37  1  0
  7 38  1  0
  8 39  1  0
  9 40  1  0
 10 41  1  0
 12 42  1  0
 16 43  1  0
 18 44  1  0
 19 45  1  0
 20 46  1  0
 30 47  1  0
 30 48  1  0
 31 49  1  0
 32 50  1  0
 33 51  1  0
 33 52  1  0
M  END
>  <smiles>
O=C(NCc1ccccc1)c1cc2c3c(c1)-c1cccc4oc(=O)n(c14)C1=C3N(CC=C1)C2

$$$$
