mol_0e71198342a3
     RDKit          3D

 60 62  0  0  0  0  0  0  0  0999 V2000
    5.0692   -3.2196    0.6025 C   0  0  0  0  0  0  0  0  0  0  0  0
    5.2721   -2.4273   -0.6768 C   0  0  0  0  0  0  0  0  0  0  0  0
    4.7163   -1.1183   -0.5822 O   0  0  0  0  0  0  0  0  0  0  0  0
    3.2919   -1.0966   -0.7197 C   0  0  0  0  0  0  0  0  0  0  0  0
    2.7648    0.3225   -0.7689 C   0  0  0  0  0  0  0  0  0  0  0  0
    3.5264    1.3855   -0.2511 C   0  0  0  0  0  0  0  0  0  0  0  0
    3.0535    2.7013   -0.2771 C   0  0  0  0  0  0  0  0  0  0  0  0
    1.8076    2.9952   -0.8346 C   0  0  0  0  0  0  0  0  0  0  0  0
    1.0434    1.9435   -1.3508 C   0  0  0  0  0  0  0  0  0  0  0  0
    1.4906    0.6110   -1.2923 C   0  0  0  0  0  0  0  0  0  0  0  0
    0.5393   -0.3990   -1.7718 C   0  0  0  0  0  0  0  0  0  0  0  0
    0.0165   -1.3325   -0.9598 C   0  0  0  0  0  0  0  0  0  0  0  0
   -1.1531   -2.2074   -1.3573 C   0  0  0  0  0  0  0  0  0  0  0  0
   -0.6366   -3.5816   -1.7929 C   0  0  0  0  0  0  0  0  0  0  0  0
   -2.1836   -2.3730   -0.2087 C   0  0  0  0  0  0  0  0  0  0  0  0
   -2.7747   -1.1346    0.4530 C   0  0  0  0  0  0  0  0  0  0  0  0
   -2.6835    0.1430   -0.1252 C   0  0  0  0  0  0  0  0  0  0  0  0
   -3.1647    1.2844    0.5336 C   0  0  0  0  0  0  0  0  0  0  0  0
   -3.7916    1.1351    1.7718 C   0  0  0  0  0  0  0  0  0  0  0  0
   -3.9451   -0.1324    2.3375 C   0  0  0  0  0  0  0  0  0  0  0  0
   -3.4433   -1.2667    1.6897 C   0  0  0  0  0  0  0  0  0  0  0  0
   -3.5435   -2.5446    2.1801 O   0  0  0  0  0  0  0  0  0  0  0  0
   -4.2517   -2.7279    3.3989 C   0  0  0  0  0  0  0  0  0  0  0  0
   -2.9317    2.6514   -0.0523 C   0  0  0  0  0  0  0  0  0  0  0  0
   -1.6155    3.1375    0.2951 N   0  0  0  0  0  0  0  0  0  0  0  0
   -1.1429    4.3272   -0.1979 C   0  0  0  0  0  0  0  0  0  0  0  0
   -1.7902    5.0439   -0.9558 O   0  0  0  0  0  0  0  0  0  0  0  0
    0.2602    4.6861    0.2458 C   0  0  0  0  0  0  0  0  0  0  0  0
    1.2830    4.4117   -0.8566 C   0  0  0  0  0  0  0  0  0  0  0  0
    5.6156   -4.1663    0.5594 H   0  0  0  0  0  0  0  0  0  0  0  0
    4.0114   -3.4455    0.7671 H   0  0  0  0  0  0  0  0  0  0  0  0
    5.4162   -2.6487    1.4697 H   0  0  0  0  0  0  0  0  0  0  0  0
    4.8656   -2.9593   -1.5442 H   0  0  0  0  0  0  0  0  0  0  0  0
    6.3466   -2.3026   -0.8471 H   0  0  0  0  0  0  0  0  0  0  0  0
    2.8388   -1.6063    0.1364 H   0  0  0  0  0  0  0  0  0  0  0  0
    3.0284   -1.6167   -1.6475 H   0  0  0  0  0  0  0  0  0  0  0  0
    4.5076    1.1918    0.1796 H   0  0  0  0  0  0  0  0  0  0  0  0
    3.6760    3.4919    0.1362 H   0  0  0  0  0  0  0  0  0  0  0  0
    0.0695    2.1595   -1.7887 H   0  0  0  0  0  0  0  0  0  0  0  0
    0.1741   -0.2680   -2.7877 H   0  0  0  0  0  0  0  0  0  0  0  0
    0.3592   -1.4170    0.0704 H   0  0  0  0  0  0  0  0  0  0  0  0
   -1.6697   -1.7575   -2.2158 H   0  0  0  0  0  0  0  0  0  0  0  0
   -0.1074   -4.0896   -0.9787 H   0  0  0  0  0  0  0  0  0  0  0  0
   -1.4653   -4.2241   -2.1094 H   0  0  0  0  0  0  0  0  0  0  0  0
    0.0551   -3.4917   -2.6381 H   0  0  0  0  0  0  0  0  0  0  0  0
   -1.6974   -2.9691    0.5765 H   0  0  0  0  0  0  0  0  0  0  0  0
   -3.0252   -2.9692   -0.5864 H   0  0  0  0  0  0  0  0  0  0  0  0
   -2.2084    0.2759   -1.0936 H   0  0  0  0  0  0  0  0  0  0  0  0
   -4.1644    2.0057    2.3074 H   0  0  0  0  0  0  0  0  0  0  0  0
   -4.4499   -0.1973    3.2955 H   0  0  0  0  0  0  0  0  0  0  0  0
   -4.2575   -3.7989    3.6235 H   0  0  0  0  0  0  0  0  0  0  0  0
   -5.2930   -2.4029    3.3048 H   0  0  0  0  0  0  0  0  0  0  0  0
   -3.7490   -2.2181    4.2272 H   0  0  0  0  0  0  0  0  0  0  0  0
   -3.6750    3.3693    0.3137 H   0  0  0  0  0  0  0  0  0  0  0  0
   -3.0241    2.6245   -1.1446 H   0  0  0  0  0  0  0  0  0  0  0  0
   -1.0193    2.5548    0.8708 H   0  0  0  0  0  0  0  0  0  0  0  0
    0.2454    5.7602    0.4685 H   0  0  0  0  0  0  0  0  0  0  0  0
    0.5165    4.1716    1.1789 H   0  0  0  0  0  0  0  0  0  0  0  0
    2.1285    5.1002   -0.7305 H   0  0  0  0  0  0  0  0  0  0  0  0
    0.8678    4.6254   -1.8496 H   0  0  0  0  0  0  0  0  0  0  0  0
  1  2  1  0
  2  3  1  0
  3  4  1  0
  4  5  1  0
  5  6  1  0
  6  7  2  0
  7  8  1  0
  8  9  2  0
  9 10  1  0
 10 11  1  0
 11 12  2  3
 12 13  1  0
 13 14  1  0
 13 15  1  0
 15 16  1  0
 16 17  1  0
 17 18  2  0
 18 19  1  0
 19 20  2  0
 20 21  1  0
 21 22  1  0
 22 23  1  0
 18 24  1  0
 24 25  1  0
 25 26  1  0
 26 27  2  0
 26 28  1  0
 28 29  1  0
 10  5  2  0
 21 16  2  0
 29  8  1  0
  1 30  1  0
  1 31  1  0
  1 32  1  0
  2 33  1  0
  2 34  1  0
  4 35  1  0
  4 36  1  0
  6 37  1  0
  7 38  1  0
  9 39  1  0
 11 40  1  0
 12 41  1  0
 13 42  1  0
 14 43  1  0
 14 44  1  0
 14 45  1  0
 15 46  1  0
 15 47  1  0
 17 48  1  0
 19 49  1  0
 20 50  1  0
 23 51  1  0
 23 52  1  0
 23 53  1  0
 24 54  1  0
 24 55  1  0
 25 56  1  0
 28 57  1  0
 28 58  1  0
 29 59  1  0
 29 60  1  0
M  END
>  <smiles>
CCOCc1ccc2cc1C=CC(C)Cc1cc(ccc1OC)CNC(=O)CC2

$$$$
