mol_629a86054afd
     RDKit          3D

 44 45  0  0  0  0  0  0  0  0999 V2000
   -3.0465   -2.1015   -0.2483 C   0  0  0  0  0  0  0  0  0  0  0  0
   -1.6582   -1.5103   -0.3298 C   0  0  0  0  0  0  0  0  0  0  0  0
   -1.4748   -0.1136   -0.4088 C   0  0  0  0  0  0  0  0  0  0  0  0
   -2.6213    0.8779   -0.4329 C   0  0  0  0  0  0  0  0  0  0  0  0
   -3.0158    1.3206    0.9810 C   0  0  0  0  0  0  0  0  0  0  0  0
   -4.2205    2.2549    0.9804 C   0  0  0  0  0  0  0  0  0  0  0  0
   -3.8986    3.5880    0.3692 C   0  0  0  0  0  0  0  0  0  0  0  0
   -4.1965    3.9545   -0.7548 O   0  0  0  0  0  0  0  0  0  0  0  0
   -3.1985    4.3870    1.1946 O   0  0  0  0  0  0  0  0  0  0  0  0
   -0.1715    0.4086   -0.4452 C   0  0  0  0  0  0  0  0  0  0  0  0
    0.9606   -0.4122   -0.4157 C   0  0  0  0  0  0  0  0  0  0  0  0
    2.2460    0.1706   -0.4317 C   0  0  0  0  0  0  0  0  0  0  0  0
    3.3918   -0.6183   -0.3910 C   0  0  0  0  0  0  0  0  0  0  0  0
    4.6906   -0.1826   -0.3996 O   0  0  0  0  0  0  0  0  0  0  0  0
    4.9224    1.2185   -0.3954 C   0  0  0  0  0  0  0  0  0  0  0  0
    4.6659    1.9129    0.9315 C   0  0  0  0  0  0  0  0  0  0  0  0
    4.0706    2.9688    1.0817 O   0  0  0  0  0  0  0  0  0  0  0  0
    5.1962    1.2662    1.9884 O   0  0  0  0  0  0  0  0  0  0  0  0
    3.2366   -2.0009   -0.3340 C   0  0  0  0  0  0  0  0  0  0  0  0
    4.3341   -2.8181   -0.2807 O   0  0  0  0  0  0  0  0  0  0  0  0
    1.9784   -2.5951   -0.3237 C   0  0  0  0  0  0  0  0  0  0  0  0
    0.8004   -1.8166   -0.3709 C   0  0  0  0  0  0  0  0  0  0  0  0
   -0.5203   -2.3658   -0.3695 C   0  0  0  0  0  0  0  0  0  0  0  0
   -0.6973   -3.8708   -0.3702 C   0  0  0  0  0  0  0  0  0  0  0  0
   -3.3648   -2.4465   -1.2369 H   0  0  0  0  0  0  0  0  0  0  0  0
   -3.0735   -2.9370    0.4592 H   0  0  0  0  0  0  0  0  0  0  0  0
   -3.7889   -1.3925    0.1253 H   0  0  0  0  0  0  0  0  0  0  0  0
   -2.3219    1.7502   -1.0285 H   0  0  0  0  0  0  0  0  0  0  0  0
   -3.4793    0.4565   -0.9689 H   0  0  0  0  0  0  0  0  0  0  0  0
   -2.1621    1.8095    1.4674 H   0  0  0  0  0  0  0  0  0  0  0  0
   -3.2589    0.4421    1.5910 H   0  0  0  0  0  0  0  0  0  0  0  0
   -4.5730    2.4252    2.0044 H   0  0  0  0  0  0  0  0  0  0  0  0
   -5.0613    1.8141    0.4331 H   0  0  0  0  0  0  0  0  0  0  0  0
   -3.0556    5.2058    0.6748 H   0  0  0  0  0  0  0  0  0  0  0  0
   -0.0440    1.4902   -0.4878 H   0  0  0  0  0  0  0  0  0  0  0  0
    2.3119    1.2535   -0.4755 H   0  0  0  0  0  0  0  0  0  0  0  0
    4.3634    1.7159   -1.1966 H   0  0  0  0  0  0  0  0  0  0  0  0
    5.9825    1.3726   -0.6280 H   0  0  0  0  0  0  0  0  0  0  0  0
    4.9383    1.8042    2.7656 H   0  0  0  0  0  0  0  0  0  0  0  0
    5.1017   -2.2144   -0.2747 H   0  0  0  0  0  0  0  0  0  0  0  0
    1.9384   -3.6787   -0.2667 H   0  0  0  0  0  0  0  0  0  0  0  0
   -1.6807   -4.1787   -0.7354 H   0  0  0  0  0  0  0  0  0  0  0  0
    0.0130   -4.3509   -1.0510 H   0  0  0  0  0  0  0  0  0  0  0  0
   -0.5588   -4.2639    0.6415 H   0  0  0  0  0  0  0  0  0  0  0  0
  1  2  1  0
  2  3  1  0
  3  4  1  0
  4  5  1  0
  5  6  1  0
  6  7  1  0
  7  8  2  0
  7  9  1  0
  3 10  2  0
 10 11  1  0
 11 12  2  0
 12 13  1  0
 13 14  1  0
 14 15  1  0
 15 16  1  0
 16 17  2  0
 16 18  1  0
 13 19  2  0
 19 20  1  0
 19 21  1  0
 21 22  2  0
 22 23  1  0
 23 24  1  0
 23  2  2  0
 22 11  1  0
  1 25  1  0
  1 26  1  0
  1 27  1  0
  4 28  1  0
  4 29  1  0
  5 30  1  0
  5 31  1  0
  6 32  1  0
  6 33  1  0
  9 34  1  0
 10 35  1  0
 12 36  1  0
 15 37  1  0
 15 38  1  0
 18 39  1  0
 20 40  1  0
 21 41  1  0
 24 42  1  0
 24 43  1  0
 24 44  1  0
M  END
>  <smiles>
Cc1c(CCCC(=O)O)cc2cc(OCC(=O)O)c(O)cc2c1C

$$$$
