mol_c7246649b0a4
     RDKit          3D

 45 49  0  0  0  0  0  0  0  0999 V2000
   -2.9522    0.5423    2.9976 N   0  0  0  0  0  0  0  0  0  0  0  0
   -3.4088   -0.6944    2.6469 C   0  0  0  0  0  0  0  0  0  0  0  0
   -4.4219   -1.1620    3.1562 O   0  0  0  0  0  0  0  0  0  0  0  0
   -2.5791   -1.4332    1.6173 C   0  0  0  0  0  0  0  0  0  0  0  0
   -2.7809   -0.8967    0.2173 C   0  0  0  0  0  0  0  0  0  0  0  0
   -3.8703   -1.3674   -0.5282 C   0  0  0  0  0  0  0  0  0  0  0  0
   -4.1465   -0.8276   -1.7776 C   0  0  0  0  0  0  0  0  0  0  0  0
   -3.3271    0.1768   -2.2938 C   0  0  0  0  0  0  0  0  0  0  0  0
   -2.1824    0.6359   -1.6068 C   0  0  0  0  0  0  0  0  0  0  0  0
   -1.9438    0.1049   -0.3302 C   0  0  0  0  0  0  0  0  0  0  0  0
   -0.9994    0.6307    0.5205 O   0  0  0  0  0  0  0  0  0  0  0  0
    0.2854    0.5201    0.0748 C   0  0  0  0  0  0  0  0  0  0  0  0
    1.1701   -0.2541    0.8365 C   0  0  0  0  0  0  0  0  0  0  0  0
    2.5237   -0.3690    0.4792 C   0  0  0  0  0  0  0  0  0  0  0  0
    3.4467   -1.2160    1.3433 C   0  0  0  0  0  0  0  0  0  0  0  0
    4.2100   -0.3649    2.3450 C   0  0  0  0  0  0  0  0  0  0  0  0
    5.5116   -0.2201    1.6297 C   0  0  0  0  0  0  0  0  0  0  0  0
    5.7610   -1.0441    0.6632 N   0  0  0  0  0  0  0  0  0  0  0  0
    4.5778   -1.9339    0.5963 C   0  0  0  0  0  0  0  0  0  0  0  0
    2.9742    0.3438   -0.6390 C   0  0  0  0  0  0  0  0  0  0  0  0
    2.0924    1.1369   -1.3792 C   0  0  0  0  0  0  0  0  0  0  0  0
    0.7379    1.2232   -1.0265 C   0  0  0  0  0  0  0  0  0  0  0  0
   -0.1330    2.1086   -1.8240 C   0  0  0  0  0  0  0  0  0  0  0  0
    0.3852    3.1550   -2.2276 O   0  0  0  0  0  0  0  0  0  0  0  0
   -1.4103    1.6788   -2.2239 N   0  0  0  0  0  0  0  0  0  0  0  0
   -1.9407    2.2819   -3.3615 C   0  0  0  0  0  0  0  0  0  0  0  0
   -3.0459    1.8109   -3.9426 C   0  0  0  0  0  0  0  0  0  0  0  0
   -3.7403    0.7157   -3.4962 O   0  0  0  0  0  0  0  0  0  0  0  0
   -3.4843    1.0704    3.6766 H   0  0  0  0  0  0  0  0  0  0  0  0
   -2.1634    0.9839    2.5432 H   0  0  0  0  0  0  0  0  0  0  0  0
   -2.8539   -2.4951    1.6501 H   0  0  0  0  0  0  0  0  0  0  0  0
   -1.5255   -1.3969    1.9115 H   0  0  0  0  0  0  0  0  0  0  0  0
   -4.5344   -2.1275   -0.1186 H   0  0  0  0  0  0  0  0  0  0  0  0
   -5.0160   -1.1633   -2.3370 H   0  0  0  0  0  0  0  0  0  0  0  0
    0.7976   -0.7693    1.7189 H   0  0  0  0  0  0  0  0  0  0  0  0
    2.8309   -1.9643    1.8579 H   0  0  0  0  0  0  0  0  0  0  0  0
    3.7683    0.6135    2.5502 H   0  0  0  0  0  0  0  0  0  0  0  0
    4.3951   -0.8892    3.2875 H   0  0  0  0  0  0  0  0  0  0  0  0
    6.2325    0.5461    1.9515 H   0  0  0  0  0  0  0  0  0  0  0  0
    4.3263   -2.1611   -0.4447 H   0  0  0  0  0  0  0  0  0  0  0  0
    4.8323   -2.8771    1.0949 H   0  0  0  0  0  0  0  0  0  0  0  0
    4.0183    0.3055   -0.9471 H   0  0  0  0  0  0  0  0  0  0  0  0
    2.4700    1.6959   -2.2344 H   0  0  0  0  0  0  0  0  0  0  0  0
   -1.4012    3.1237   -3.7872 H   0  0  0  0  0  0  0  0  0  0  0  0
   -3.4860    2.2225   -4.8395 H   0  0  0  0  0  0  0  0  0  0  0  0
  1  2  1  0
  2  3  2  0
  2  4  1  0
  4  5  1  0
  5  6  1  0
  6  7  2  0
  7  8  1  0
  8  9  2  0
  9 10  1  0
 10 11  1  0
 11 12  1  0
 12 13  1  0
 13 14  2  0
 14 15  1  0
 15 16  1  0
 16 17  1  0
 17 18  2  0
 18 19  1  0
 14 20  1  0
 20 21  2  0
 21 22  1  0
 22 23  1  0
 23 24  2  0
 23 25  1  0
 25 26  1  0
 26 27  2  0
 27 28  1  0
 10  5  2  0
 22 12  2  0
 28  8  1  0
 25  9  1  0
 19 15  1  0
  1 29  1  0
  1 30  1  0
  4 31  1  0
  4 32  1  0
  6 33  1  0
  7 34  1  0
 13 35  1  0
 15 36  1  0
 16 37  1  0
 16 38  1  0
 17 39  1  0
 19 40  1  0
 19 41  1  0
 20 42  1  0
 21 43  1  0
 26 44  1  0
 27 45  1  0
M  END
>  <smiles>
NC(=O)Cc1ccc2c3c1Oc1cc(C4CC=NC4)ccc1C(=O)N3C=CO2

$$$$
