mol_c35be641208c
     RDKit          3D

 38 40  0  0  0  0  0  0  0  0999 V2000
   -1.4796   -2.2028    2.6103 C   0  0  0  0  0  0  0  0  0  0  0  0
   -0.9104   -1.2154    1.6282 C   0  0  0  0  0  0  0  0  0  0  0  0
    0.4715   -0.9828    1.6201 C   0  0  0  0  0  0  0  0  0  0  0  0
    1.0652   -0.0761    0.7255 C   0  0  0  0  0  0  0  0  0  0  0  0
    2.5728    0.0639    0.7593 C   0  0  0  0  0  0  0  0  0  0  0  0
    3.2498   -0.8059   -0.2969 C   0  0  0  0  0  0  0  0  0  0  0  0
    4.7435   -0.6638   -0.2334 C   0  0  0  0  0  0  0  0  0  0  0  0
    5.3906    0.0416    0.5206 O   0  0  0  0  0  0  0  0  0  0  0  0
    5.3613   -1.4360   -1.1487 O   0  0  0  0  0  0  0  0  0  0  0  0
    0.2446    0.6264   -0.1802 C   0  0  0  0  0  0  0  0  0  0  0  0
   -1.1481    0.4036   -0.1728 C   0  0  0  0  0  0  0  0  0  0  0  0
   -1.7302   -0.5038    0.7323 C   0  0  0  0  0  0  0  0  0  0  0  0
   -3.2194   -0.7341    0.6798 C   0  0  0  0  0  0  0  0  0  0  0  0
   -3.9316    0.3675    0.0448 N   0  0  0  0  0  0  0  0  0  0  0  0
   -3.3542    0.6397   -1.2606 C   0  0  0  0  0  0  0  0  0  0  0  0
   -1.9825    1.0727   -1.1100 N   0  0  0  0  0  0  0  0  0  0  0  0
   -1.5128    2.0689   -1.9512 C   0  0  0  0  0  0  0  0  0  0  0  0
   -2.1577    2.5342   -2.8914 O   0  0  0  0  0  0  0  0  0  0  0  0
   -0.1666    2.6388   -1.5884 C   0  0  0  0  0  0  0  0  0  0  0  0
    0.8097    1.5360   -1.2408 C   0  0  0  0  0  0  0  0  0  0  0  0
   -2.1269   -2.9235    2.1005 H   0  0  0  0  0  0  0  0  0  0  0  0
   -2.0515   -1.6790    3.3827 H   0  0  0  0  0  0  0  0  0  0  0  0
   -0.6898   -2.7761    3.1075 H   0  0  0  0  0  0  0  0  0  0  0  0
    1.1040   -1.5290    2.3198 H   0  0  0  0  0  0  0  0  0  0  0  0
    2.8595    1.1161    0.6509 H   0  0  0  0  0  0  0  0  0  0  0  0
    2.9416   -0.2154    1.7559 H   0  0  0  0  0  0  0  0  0  0  0  0
    2.9227   -0.5186   -1.3017 H   0  0  0  0  0  0  0  0  0  0  0  0
    2.9973   -1.8601   -0.1347 H   0  0  0  0  0  0  0  0  0  0  0  0
    6.3154   -1.2573   -1.0111 H   0  0  0  0  0  0  0  0  0  0  0  0
   -3.4188   -1.6734    0.1492 H   0  0  0  0  0  0  0  0  0  0  0  0
   -3.6176   -0.8313    1.6952 H   0  0  0  0  0  0  0  0  0  0  0  0
   -4.9081    0.1118   -0.0740 H   0  0  0  0  0  0  0  0  0  0  0  0
   -3.9468    1.4211   -1.7484 H   0  0  0  0  0  0  0  0  0  0  0  0
   -3.3766   -0.2402   -1.9161 H   0  0  0  0  0  0  0  0  0  0  0  0
   -0.3073    3.3221   -0.7421 H   0  0  0  0  0  0  0  0  0  0  0  0
    0.2154    3.2219   -2.4334 H   0  0  0  0  0  0  0  0  0  0  0  0
    1.0298    0.9319   -2.1296 H   0  0  0  0  0  0  0  0  0  0  0  0
    1.7419    2.0066   -0.9171 H   0  0  0  0  0  0  0  0  0  0  0  0
  1  2  1  0
  2  3  2  0
  3  4  1  0
  4  5  1  0
  5  6  1  0
  6  7  1  0
  7  8  2  0
  7  9  1  0
  4 10  2  0
 10 11  1  0
 11 12  2  0
 12 13  1  0
 13 14  1  0
 14 15  1  0
 15 16  1  0
 16 17  1  0
 17 18  2  0
 17 19  1  0
 19 20  1  0
 12  2  1  0
 20 10  1  0
 16 11  1  0
  1 21  1  0
  1 22  1  0
  1 23  1  0
  3 24  1  0
  5 25  1  0
  5 26  1  0
  6 27  1  0
  6 28  1  0
  9 29  1  0
 13 30  1  0
 13 31  1  0
 14 32  1  0
 15 33  1  0
 15 34  1  0
 19 35  1  0
 19 36  1  0
 20 37  1  0
 20 38  1  0
M  END
>  <smiles>
Cc1cc(CCC(=O)O)c2c3c1CNCN3C(=O)CC2

$$$$
