mol_d132aea55c2e
     RDKit          3D

 57 59  0  0  0  0  0  0  0  0999 V2000
   -4.7182   -3.0234    1.6962 C   0  0  0  0  0  0  0  0  0  0  0  0
   -3.8317   -1.9079    1.4711 N   0  0  0  0  0  0  0  0  0  0  0  0
   -3.2276   -1.1674    2.5544 C   0  0  0  0  0  0  0  0  0  0  0  0
   -2.7587    0.1177    1.8715 C   0  0  0  0  0  0  0  0  0  0  0  0
   -3.8880    1.1622    1.8560 C   0  0  0  0  0  0  0  0  0  0  0  0
   -3.6943    2.2299    0.7894 C   0  0  0  0  0  0  0  0  0  0  0  0
   -3.5079    1.5860   -0.5797 C   0  0  0  0  0  0  0  0  0  0  0  0
   -2.2597    0.6818   -0.6322 C   0  0  0  0  0  0  0  0  0  0  0  0
   -0.9047    1.4744   -0.5467 C   0  0  0  0  0  0  0  0  0  0  0  0
   -0.8694    2.6932   -1.4944 C   0  0  0  0  0  0  0  0  0  0  0  0
    0.4712    3.4244   -1.4758 C   0  0  0  0  0  0  0  0  0  0  0  0
    1.6316    2.4899   -1.7814 C   0  0  0  0  0  0  0  0  0  0  0  0
    1.6421    1.3050   -0.8185 C   0  0  0  0  0  0  0  0  0  0  0  0
    2.7384    0.4028   -1.1367 N   0  0  0  0  0  0  0  0  0  0  0  0
    3.3305   -0.3977   -0.1816 C   0  0  0  0  0  0  0  0  0  0  0  0
    2.9999   -0.3995    0.9990 O   0  0  0  0  0  0  0  0  0  0  0  0
    4.4230   -1.2789   -0.7540 C   0  0  0  0  0  0  0  0  0  0  0  0
    5.1077   -2.1195    0.3225 C   0  0  0  0  0  0  0  0  0  0  0  0
    6.1482   -3.0799   -0.2489 C   0  0  0  0  0  0  0  0  0  0  0  0
    7.2348   -2.3677   -0.9118 N   0  0  0  0  0  0  0  0  0  0  0  0
    0.3025    0.5563   -0.8532 C   0  0  0  0  0  0  0  0  0  0  0  0
   -2.3629   -0.3902    0.4722 C   0  0  0  0  0  0  0  0  0  0  0  0
   -3.3996   -1.4775    0.2222 C   0  0  0  0  0  0  0  0  0  0  0  0
   -3.7324   -1.9234   -0.8623 O   0  0  0  0  0  0  0  0  0  0  0  0
   -5.0580   -3.4446    0.7466 H   0  0  0  0  0  0  0  0  0  0  0  0
   -4.1817   -3.7900    2.2618 H   0  0  0  0  0  0  0  0  0  0  0  0
   -5.5811   -2.6780    2.2717 H   0  0  0  0  0  0  0  0  0  0  0  0
   -3.9525   -0.9917    3.3550 H   0  0  0  0  0  0  0  0  0  0  0  0
   -2.3861   -1.7535    2.9389 H   0  0  0  0  0  0  0  0  0  0  0  0
   -1.8929    0.5447    2.3906 H   0  0  0  0  0  0  0  0  0  0  0  0
   -4.8575    0.6762    1.6833 H   0  0  0  0  0  0  0  0  0  0  0  0
   -3.9600    1.6347    2.8431 H   0  0  0  0  0  0  0  0  0  0  0  0
   -2.8377    2.8641    1.0416 H   0  0  0  0  0  0  0  0  0  0  0  0
   -4.5744    2.8829    0.7682 H   0  0  0  0  0  0  0  0  0  0  0  0
   -3.4778    2.3549   -1.3574 H   0  0  0  0  0  0  0  0  0  0  0  0
   -4.3966    0.9840   -0.8120 H   0  0  0  0  0  0  0  0  0  0  0  0
   -2.2764    0.1802   -1.6097 H   0  0  0  0  0  0  0  0  0  0  0  0
   -0.7829    1.8483    0.4786 H   0  0  0  0  0  0  0  0  0  0  0  0
   -1.6363    3.4215   -1.2117 H   0  0  0  0  0  0  0  0  0  0  0  0
   -1.0911    2.3692   -2.5191 H   0  0  0  0  0  0  0  0  0  0  0  0
    0.6206    3.8845   -0.4911 H   0  0  0  0  0  0  0  0  0  0  0  0
    0.4536    4.2400   -2.2078 H   0  0  0  0  0  0  0  0  0  0  0  0
    1.5553    2.1354   -2.8176 H   0  0  0  0  0  0  0  0  0  0  0  0
    2.5772    3.0410   -1.7102 H   0  0  0  0  0  0  0  0  0  0  0  0
    1.8042    1.6804    0.2005 H   0  0  0  0  0  0  0  0  0  0  0  0
    3.0267    0.3036   -2.1022 H   0  0  0  0  0  0  0  0  0  0  0  0
    5.1499   -0.6312   -1.2575 H   0  0  0  0  0  0  0  0  0  0  0  0
    3.9704   -1.9320   -1.5096 H   0  0  0  0  0  0  0  0  0  0  0  0
    4.3539   -2.7065    0.8624 H   0  0  0  0  0  0  0  0  0  0  0  0
    5.5746   -1.4605    1.0659 H   0  0  0  0  0  0  0  0  0  0  0  0
    5.6755   -3.7611   -0.9647 H   0  0  0  0  0  0  0  0  0  0  0  0
    6.5614   -3.6910    0.5611 H   0  0  0  0  0  0  0  0  0  0  0  0
    7.9335   -3.0406   -1.2265 H   0  0  0  0  0  0  0  0  0  0  0  0
    7.7086   -1.7682   -0.2359 H   0  0  0  0  0  0  0  0  0  0  0  0
    0.1678    0.0895   -1.8384 H   0  0  0  0  0  0  0  0  0  0  0  0
    0.3576   -0.2639   -0.1314 H   0  0  0  0  0  0  0  0  0  0  0  0
   -1.4225   -0.9458    0.5565 H   0  0  0  0  0  0  0  0  0  0  0  0
  1  2  1  0
  2  3  1  0
  3  4  1  0
  4  5  1  0
  5  6  1  0
  6  7  1  0
  7  8  1  0
  8  9  1  0
  9 10  1  0
 10 11  1  0
 11 12  1  0
 12 13  1  0
 13 14  1  0
 14 15  1  0
 15 16  2  0
 15 17  1  0
 17 18  1  0
 18 19  1  0
 19 20  1  0
 13 21  1  0
  8 22  1  0
 22 23  1  0
 23 24  2  0
 23  2  1  0
 22  4  1  0
 21  9  1  0
  1 25  1  0
  1 26  1  0
  1 27  1  0
  3 28  1  0
  3 29  1  0
  4 30  1  0
  5 31  1  0
  5 32  1  0
  6 33  1  0
  6 34  1  0
  7 35  1  0
  7 36  1  0
  8 37  1  0
  9 38  1  0
 10 39  1  0
 10 40  1  0
 11 41  1  0
 11 42  1  0
 12 43  1  0
 12 44  1  0
 13 45  1  0
 14 46  1  0
 17 47  1  0
 17 48  1  0
 18 49  1  0
 18 50  1  0
 19 51  1  0
 19 52  1  0
 20 53  1  0
 20 54  1  0
 21 55  1  0
 21 56  1  0
 22 57  1  0
M  END
>  <smiles>
CN1CC2CCCC(C3CCCC(NC(=O)CCCN)C3)C2C1=O

$$$$
