mol_58ab1fce54d4
     RDKit          3D

 54 57  0  0  0  0  0  0  0  0999 V2000
   -1.5363    0.0482    3.3714 O   0  0  0  0  0  0  0  0  0  0  0  0
   -1.7156   -0.1532    2.1729 C   0  0  0  0  0  0  0  0  0  0  0  0
   -2.5893    0.5912    1.4209 N   0  0  0  0  0  0  0  0  0  0  0  0
   -3.3556    1.6618    2.0123 C   0  0  0  0  0  0  0  0  0  0  0  0
   -4.2330    2.3181    0.9814 C   0  0  0  0  0  0  0  0  0  0  0  0
   -3.7473    3.3820    0.2081 C   0  0  0  0  0  0  0  0  0  0  0  0
   -4.5502    3.9687   -0.7712 C   0  0  0  0  0  0  0  0  0  0  0  0
   -5.8413    3.4927   -0.9924 C   0  0  0  0  0  0  0  0  0  0  0  0
   -6.3304    2.4283   -0.2373 C   0  0  0  0  0  0  0  0  0  0  0  0
   -5.5292    1.8401    0.7426 C   0  0  0  0  0  0  0  0  0  0  0  0
   -0.9660   -1.2477    1.4283 C   0  0  0  0  0  0  0  0  0  0  0  0
   -1.9167   -2.2441    0.7663 C   0  0  0  0  0  0  0  0  0  0  0  0
   -1.1214   -3.4139    0.1958 C   0  0  0  0  0  0  0  0  0  0  0  0
    0.0462   -2.9704   -0.6511 C   0  0  0  0  0  0  0  0  0  0  0  0
    0.6236   -3.8936   -1.5321 C   0  0  0  0  0  0  0  0  0  0  0  0
    1.7109   -3.5281   -2.3138 C   0  0  0  0  0  0  0  0  0  0  0  0
    2.2206   -4.4685   -3.1611 O   0  0  0  0  0  0  0  0  0  0  0  0
    2.2528   -2.2492   -2.2368 C   0  0  0  0  0  0  0  0  0  0  0  0
    1.7033   -1.3198   -1.3484 C   0  0  0  0  0  0  0  0  0  0  0  0
    2.1460   -0.0291   -1.2053 O   0  0  0  0  0  0  0  0  0  0  0  0
    3.4202    0.2942   -1.7519 C   0  0  0  0  0  0  0  0  0  0  0  0
    3.7675    1.6738   -1.2799 C   0  0  0  0  0  0  0  0  0  0  0  0
    4.6584    2.0369   -0.3415 C   0  0  0  0  0  0  0  0  0  0  0  0
    5.4406    1.1986    0.4994 C   0  0  0  0  0  0  0  0  0  0  0  0
    6.7356    1.4405    0.9997 C   0  0  0  0  0  0  0  0  0  0  0  0
    7.1645    0.4494    1.7860 N   0  0  0  0  0  0  0  0  0  0  0  0
    6.1165   -0.4586    1.8309 O   0  0  0  0  0  0  0  0  0  0  0  0
    5.0894    0.0017    1.0711 C   0  0  0  0  0  0  0  0  0  0  0  0
    0.6005   -1.6777   -0.5415 C   0  0  0  0  0  0  0  0  0  0  0  0
   -0.0057   -0.6507    0.3956 C   0  0  0  0  0  0  0  0  0  0  0  0
   -2.7094    0.4074    0.4337 H   0  0  0  0  0  0  0  0  0  0  0  0
   -3.9565    1.2533    2.8335 H   0  0  0  0  0  0  0  0  0  0  0  0
   -2.6635    2.3884    2.4544 H   0  0  0  0  0  0  0  0  0  0  0  0
   -2.7392    3.7595    0.3668 H   0  0  0  0  0  0  0  0  0  0  0  0
   -4.1682    4.7971   -1.3623 H   0  0  0  0  0  0  0  0  0  0  0  0
   -6.4664    3.9508   -1.7546 H   0  0  0  0  0  0  0  0  0  0  0  0
   -7.3364    2.0555   -0.4121 H   0  0  0  0  0  0  0  0  0  0  0  0
   -5.9215    1.0062    1.3210 H   0  0  0  0  0  0  0  0  0  0  0  0
   -0.3762   -1.7889    2.1823 H   0  0  0  0  0  0  0  0  0  0  0  0
   -2.4834   -1.7611   -0.0400 H   0  0  0  0  0  0  0  0  0  0  0  0
   -2.6538   -2.6147    1.4887 H   0  0  0  0  0  0  0  0  0  0  0  0
   -1.7975   -4.0398   -0.3991 H   0  0  0  0  0  0  0  0  0  0  0  0
   -0.7351   -4.0310    1.0166 H   0  0  0  0  0  0  0  0  0  0  0  0
    0.2248   -4.9020   -1.6152 H   0  0  0  0  0  0  0  0  0  0  0  0
    2.9860   -4.0950   -3.6270 H   0  0  0  0  0  0  0  0  0  0  0  0
    3.0867   -1.9912   -2.8774 H   0  0  0  0  0  0  0  0  0  0  0  0
    4.1795   -0.4367   -1.4554 H   0  0  0  0  0  0  0  0  0  0  0  0
    3.3625    0.3114   -2.8470 H   0  0  0  0  0  0  0  0  0  0  0  0
    3.2353    2.4686   -1.8004 H   0  0  0  0  0  0  0  0  0  0  0  0
    4.8023    3.1083   -0.1984 H   0  0  0  0  0  0  0  0  0  0  0  0
    7.3886    2.2840    0.8258 H   0  0  0  0  0  0  0  0  0  0  0  0
    4.2072   -0.6218    1.0586 H   0  0  0  0  0  0  0  0  0  0  0  0
   -0.5170    0.0977   -0.2230 H   0  0  0  0  0  0  0  0  0  0  0  0
    0.7925   -0.1275    0.9380 H   0  0  0  0  0  0  0  0  0  0  0  0
  1  2  2  0
  2  3  1  0
  3  4  1  0
  4  5  1  0
  5  6  2  0
  6  7  1  0
  7  8  2  0
  8  9  1  0
  9 10  2  0
  2 11  1  0
 11 12  1  0
 12 13  1  0
 13 14  1  0
 14 15  2  0
 15 16  1  0
 16 17  1  0
 16 18  2  0
 18 19  1  0
 19 20  1  0
 20 21  1  0
 21 22  1  0
 22 23  2  3
 23 24  1  0
 24 25  1  0
 25 26  2  0
 26 27  1  0
 27 28  1  0
 19 29  2  0
 29 30  1  0
 10  5  1  0
 30 11  1  0
 29 14  1  0
 28 24  2  0
  3 31  1  0
  4 32  1  0
  4 33  1  0
  6 34  1  0
  7 35  1  0
  8 36  1  0
  9 37  1  0
 10 38  1  0
 11 39  1  0
 12 40  1  0
 12 41  1  0
 13 42  1  0
 13 43  1  0
 15 44  1  0
 17 45  1  0
 18 46  1  0
 21 47  1  0
 21 48  1  0
 22 49  1  0
 23 50  1  0
 25 51  1  0
 28 52  1  0
 30 53  1  0
 30 54  1  0
M  END
>  <smiles>
O=C(NCc1ccccc1)C1CCc2cc(O)cc(OCC=Cc3cnoc3)c2C1

$$$$
