mol_c9d374068f8f
     RDKit          3D

 62 66  0  0  0  0  0  0  0  0999 V2000
    7.8919   -2.6628   -3.8961 N   0  0  0  0  0  0  0  0  0  0  0  0
    6.8916   -1.7322   -3.8725 C   0  0  0  0  0  0  0  0  0  0  0  0
    6.8382   -0.8498   -4.7195 O   0  0  0  0  0  0  0  0  0  0  0  0
    5.8981   -1.8151   -2.7693 C   0  0  0  0  0  0  0  0  0  0  0  0
    5.2085   -0.6534   -2.4088 C   0  0  0  0  0  0  0  0  0  0  0  0
    4.2611   -0.6783   -1.3775 C   0  0  0  0  0  0  0  0  0  0  0  0
    3.9823   -1.8665   -0.7009 C   0  0  0  0  0  0  0  0  0  0  0  0
    3.0398   -1.9806    0.3420 N   0  0  0  0  0  0  0  0  0  0  0  0
    2.2759   -0.9687    0.9041 C   0  0  0  0  0  0  0  0  0  0  0  0
    2.3043    0.2176    0.5987 O   0  0  0  0  0  0  0  0  0  0  0  0
    1.3331   -1.5085    1.9692 C   0  0  0  0  0  0  0  0  0  0  0  0
    0.6265   -0.3980    2.7457 C   0  0  0  0  0  0  0  0  0  0  0  0
   -0.2899    0.2523    1.8715 O   0  0  0  0  0  0  0  0  0  0  0  0
   -0.9005    1.3522    2.4234 C   0  0  0  0  0  0  0  0  0  0  0  0
   -0.1767    2.1846    3.2972 C   0  0  0  0  0  0  0  0  0  0  0  0
   -0.8135    3.2758    3.8952 C   0  0  0  0  0  0  0  0  0  0  0  0
   -2.1561    3.5243    3.6353 C   0  0  0  0  0  0  0  0  0  0  0  0
   -2.8634    2.7074    2.7492 C   0  0  0  0  0  0  0  0  0  0  0  0
   -2.2522    1.6177    2.1073 C   0  0  0  0  0  0  0  0  0  0  0  0
   -2.9948    0.8502    1.1355 N   0  0  0  0  0  0  0  0  0  0  0  0
   -2.2667    0.3245   -0.0155 C   0  0  0  0  0  0  0  0  0  0  0  0
   -3.1492    0.1922   -1.2448 C   0  0  0  0  0  0  0  0  0  0  0  0
   -3.5552    1.5645   -1.8177 C   0  0  0  0  0  0  0  0  0  0  0  0
   -4.9292    1.5642   -2.4891 C   0  0  0  0  0  0  0  0  0  0  0  0
   -5.2841    0.1971   -3.0513 C   0  0  0  0  0  0  0  0  0  0  0  0
   -5.3361   -0.8745   -1.9591 C   0  0  0  0  0  0  0  0  0  0  0  0
   -4.3336   -0.6486   -0.8191 C   0  0  0  0  0  0  0  0  0  0  0  0
   -5.0224   -0.0160    0.2729 O   0  0  0  0  0  0  0  0  0  0  0  0
   -4.3664    0.6130    1.2957 C   0  0  0  0  0  0  0  0  0  0  0  0
   -5.0219    0.9331    2.2842 O   0  0  0  0  0  0  0  0  0  0  0  0
    1.2913    1.9557    3.5265 C   0  0  0  0  0  0  0  0  0  0  0  0
    1.6440    0.4981    3.4435 C   0  0  0  0  0  0  0  0  0  0  0  0
    2.6829    0.0501    3.9341 O   0  0  0  0  0  0  0  0  0  0  0  0
    4.6638   -3.0326   -1.0761 C   0  0  0  0  0  0  0  0  0  0  0  0
    5.6151   -3.0113   -2.1039 C   0  0  0  0  0  0  0  0  0  0  0  0
    8.0477   -3.3515   -3.1765 H   0  0  0  0  0  0  0  0  0  0  0  0
    8.5684   -2.5886   -4.6451 H   0  0  0  0  0  0  0  0  0  0  0  0
    5.4071    0.2834   -2.9272 H   0  0  0  0  0  0  0  0  0  0  0  0
    3.7580    0.2526   -1.1351 H   0  0  0  0  0  0  0  0  0  0  0  0
    2.9266   -2.9068    0.7349 H   0  0  0  0  0  0  0  0  0  0  0  0
    1.9085   -2.1430    2.6542 H   0  0  0  0  0  0  0  0  0  0  0  0
    0.5924   -2.1369    1.4595 H   0  0  0  0  0  0  0  0  0  0  0  0
    0.0349   -0.8714    3.5418 H   0  0  0  0  0  0  0  0  0  0  0  0
   -0.2688    3.9401    4.5628 H   0  0  0  0  0  0  0  0  0  0  0  0
   -2.6556    4.3702    4.1021 H   0  0  0  0  0  0  0  0  0  0  0  0
   -3.8970    2.9743    2.5398 H   0  0  0  0  0  0  0  0  0  0  0  0
   -1.8836   -0.6660    0.2590 H   0  0  0  0  0  0  0  0  0  0  0  0
   -1.4212    0.9787   -0.2606 H   0  0  0  0  0  0  0  0  0  0  0  0
   -2.5903   -0.3462   -2.0218 H   0  0  0  0  0  0  0  0  0  0  0  0
   -2.7958    1.8626   -2.5523 H   0  0  0  0  0  0  0  0  0  0  0  0
   -3.5431    2.3497   -1.0523 H   0  0  0  0  0  0  0  0  0  0  0  0
   -5.6914    1.8620   -1.7582 H   0  0  0  0  0  0  0  0  0  0  0  0
   -4.9496    2.3187   -3.2837 H   0  0  0  0  0  0  0  0  0  0  0  0
   -4.5383   -0.0870   -3.8046 H   0  0  0  0  0  0  0  0  0  0  0  0
   -6.2489    0.2385   -3.5695 H   0  0  0  0  0  0  0  0  0  0  0  0
   -5.1362   -1.8431   -2.4338 H   0  0  0  0  0  0  0  0  0  0  0  0
   -6.3545   -0.9260   -1.5542 H   0  0  0  0  0  0  0  0  0  0  0  0
   -4.0125   -1.6315   -0.4514 H   0  0  0  0  0  0  0  0  0  0  0  0
    1.8676    2.4980    2.7699 H   0  0  0  0  0  0  0  0  0  0  0  0
    1.5760    2.3099    4.5235 H   0  0  0  0  0  0  0  0  0  0  0  0
    4.4622   -3.9780   -0.5782 H   0  0  0  0  0  0  0  0  0  0  0  0
    6.1009   -3.9403   -2.3850 H   0  0  0  0  0  0  0  0  0  0  0  0
  1  2  1  0
  2  3  2  0
  2  4  1  0
  4  5  1  0
  5  6  2  0
  6  7  1  0
  7  8  1  0
  8  9  1  0
  9 10  2  0
  9 11  1  0
 11 12  1  0
 12 13  1  0
 13 14  1  0
 14 15  1  0
 15 16  2  0
 16 17  1  0
 17 18  2  0
 18 19  1  0
 19 20  1  0
 20 21  1  0
 21 22  1  0
 22 23  1  0
 23 24  1  0
 24 25  1  0
 25 26  1  0
 26 27  1  0
 27 28  1  0
 28 29  1  0
 29 30  2  0
 15 31  1  0
 31 32  1  0
 32 33  2  0
  7 34  2  0
 34 35  1  0
 35  4  2  0
 32 12  1  0
 19 14  2  0
 29 20  1  0
 27 22  1  0
  1 36  1  0
  1 37  1  0
  5 38  1  0
  6 39  1  0
  8 40  1  0
 11 41  1  0
 11 42  1  0
 12 43  1  0
 16 44  1  0
 17 45  1  0
 18 46  1  0
 21 47  1  0
 21 48  1  0
 22 49  1  0
 23 50  1  0
 23 51  1  0
 24 52  1  0
 24 53  1  0
 25 54  1  0
 25 55  1  0
 26 56  1  0
 26 57  1  0
 27 58  1  0
 31 59  1  0
 31 60  1  0
 34 61  1  0
 35 62  1  0
M  END
>  <smiles>
NC(=O)c1ccc(NC(=O)CC2Oc3c(cccc3N3CC4CCCCC4OC3=O)CC2=O)cc1

$$$$
