mol_61d0dc9b3cc4
     RDKit          3D

 39 40  0  0  0  0  0  0  0  0999 V2000
   -5.2082    1.6394    0.6353 C   0  0  0  0  0  0  0  0  0  0  0  0
   -5.3164    0.5179   -0.3886 C   0  0  0  0  0  0  0  0  0  0  0  0
   -4.0756    0.3912   -1.2774 C   0  0  0  0  0  0  0  0  0  0  0  0
   -2.8435   -0.0692   -0.5387 C   0  0  0  0  0  0  0  0  0  0  0  0
   -2.7205   -1.3972   -0.1166 C   0  0  0  0  0  0  0  0  0  0  0  0
   -1.5794   -1.8163    0.5716 C   0  0  0  0  0  0  0  0  0  0  0  0
   -0.5459   -0.9203    0.8547 C   0  0  0  0  0  0  0  0  0  0  0  0
    0.5111   -1.4671    1.5282 O   0  0  0  0  0  0  0  0  0  0  0  0
    1.5318   -0.5851    2.0164 C   0  0  0  0  0  0  0  0  0  0  0  0
    2.5772   -0.2131    0.9838 C   0  0  0  0  0  0  0  0  0  0  0  0
    2.9106    1.1089    0.9363 N   0  0  0  0  0  0  0  0  0  0  0  0
    3.8869    1.4747    0.0789 C   0  0  0  0  0  0  0  0  0  0  0  0
    4.5829    0.5883   -0.7284 C   0  0  0  0  0  0  0  0  0  0  0  0
    5.6461    1.0637   -1.6656 C   0  0  0  0  0  0  0  0  0  0  0  0
    4.2149   -0.7582   -0.6708 C   0  0  0  0  0  0  0  0  0  0  0  0
    3.1817   -1.1841    0.1684 C   0  0  0  0  0  0  0  0  0  0  0  0
    2.8914   -2.5418    0.2588 N   0  0  0  0  0  0  0  0  0  0  0  0
   -0.6610    0.4025    0.4313 C   0  0  0  0  0  0  0  0  0  0  0  0
   -1.8028    0.8247   -0.2597 C   0  0  0  0  0  0  0  0  0  0  0  0
   -6.1492    1.7367    1.1862 H   0  0  0  0  0  0  0  0  0  0  0  0
   -4.4156    1.4426    1.3634 H   0  0  0  0  0  0  0  0  0  0  0  0
   -5.0010    2.5975    0.1481 H   0  0  0  0  0  0  0  0  0  0  0  0
   -6.1826    0.7190   -1.0303 H   0  0  0  0  0  0  0  0  0  0  0  0
   -5.5191   -0.4267    0.1297 H   0  0  0  0  0  0  0  0  0  0  0  0
   -4.2816   -0.3282   -2.0806 H   0  0  0  0  0  0  0  0  0  0  0  0
   -3.8799    1.3473   -1.7791 H   0  0  0  0  0  0  0  0  0  0  0  0
   -3.5111   -2.1152   -0.3211 H   0  0  0  0  0  0  0  0  0  0  0  0
   -1.4990   -2.8515    0.8932 H   0  0  0  0  0  0  0  0  0  0  0  0
    1.0923    0.3016    2.4907 H   0  0  0  0  0  0  0  0  0  0  0  0
    2.0475   -1.1227    2.8215 H   0  0  0  0  0  0  0  0  0  0  0  0
    4.1064    2.5391    0.0687 H   0  0  0  0  0  0  0  0  0  0  0  0
    5.2075    1.3086   -2.6378 H   0  0  0  0  0  0  0  0  0  0  0  0
    6.4136    0.2955   -1.8074 H   0  0  0  0  0  0  0  0  0  0  0  0
    6.1474    1.9536   -1.2704 H   0  0  0  0  0  0  0  0  0  0  0  0
    4.7363   -1.4827   -1.2912 H   0  0  0  0  0  0  0  0  0  0  0  0
    3.2525   -3.1723   -0.4441 H   0  0  0  0  0  0  0  0  0  0  0  0
    2.0043   -2.7987    0.6854 H   0  0  0  0  0  0  0  0  0  0  0  0
    0.1198    1.1352    0.6100 H   0  0  0  0  0  0  0  0  0  0  0  0
   -1.8698    1.8627   -0.5786 H   0  0  0  0  0  0  0  0  0  0  0  0
  1  2  1  0
  2  3  1  0
  3  4  1  0
  4  5  1  0
  5  6  2  0
  6  7  1  0
  7  8  1  0
  8  9  1  0
  9 10  1  0
 10 11  1  0
 11 12  2  0
 12 13  1  0
 13 14  1  0
 13 15  2  0
 15 16  1  0
 16 17  1  0
  7 18  2  0
 18 19  1  0
 19  4  2  0
 16 10  2  0
  1 20  1  0
  1 21  1  0
  1 22  1  0
  2 23  1  0
  2 24  1  0
  3 25  1  0
  3 26  1  0
  5 27  1  0
  6 28  1  0
  9 29  1  0
  9 30  1  0
 12 31  1  0
 14 32  1  0
 14 33  1  0
 14 34  1  0
 15 35  1  0
 17 36  1  0
 17 37  1  0
 18 38  1  0
 19 39  1  0
M  END
>  <smiles>
CCCc1ccc(OCc2ncc(C)cc2N)cc1

$$$$
