mol_b55b56c4d771
     RDKit          3D

 65 66  0  0  0  0  0  0  0  0999 V2000
   -4.3335    4.9625   -1.5213 C   0  0  0  0  0  0  0  0  0  0  0  0
   -3.0058    4.5453   -1.8941 N   0  0  0  0  0  0  0  0  0  0  0  0
   -2.4222    3.4378   -1.3194 C   0  0  0  0  0  0  0  0  0  0  0  0
   -2.9765    2.7608   -0.4596 O   0  0  0  0  0  0  0  0  0  0  0  0
   -1.0255    3.1614   -1.8525 C   0  0  0  0  0  0  0  0  0  0  0  0
   -0.4051    1.8786   -1.2997 C   0  0  0  0  0  0  0  0  0  0  0  0
   -0.0064    2.0148    0.1723 C   0  0  0  0  0  0  0  0  0  0  0  0
    0.5186    0.7324    0.7829 C   0  0  0  0  0  0  0  0  0  0  0  0
    1.9093    0.6142    0.9716 C   0  0  0  0  0  0  0  0  0  0  0  0
    2.4593   -0.5356    1.5480 C   0  0  0  0  0  0  0  0  0  0  0  0
    3.9191   -0.6558    1.7503 C   0  0  0  0  0  0  0  0  0  0  0  0
    4.3400   -0.8276    2.8908 O   0  0  0  0  0  0  0  0  0  0  0  0
    4.7381   -0.5917    0.6401 N   0  0  0  0  0  0  0  0  0  0  0  0
    6.1805   -0.6804    0.7775 C   0  0  0  0  0  0  0  0  0  0  0  0
    6.7120   -0.4204   -0.6239 C   0  0  0  0  0  0  0  0  0  0  0  0
    5.6042   -0.9734   -1.5125 C   0  0  0  0  0  0  0  0  0  0  0  0
    4.3396   -0.5799   -0.7607 C   0  0  0  0  0  0  0  0  0  0  0  0
    1.6343   -1.5684    1.9852 C   0  0  0  0  0  0  0  0  0  0  0  0
    0.2564   -1.4699    1.7966 C   0  0  0  0  0  0  0  0  0  0  0  0
   -0.3153   -0.3363    1.1863 C   0  0  0  0  0  0  0  0  0  0  0  0
   -1.7842   -0.3556    0.9856 C   0  0  0  0  0  0  0  0  0  0  0  0
   -2.3226   -1.0612   -0.0319 C   0  0  0  0  0  0  0  0  0  0  0  0
   -1.6003   -1.8429   -1.1014 C   0  0  0  0  0  0  0  0  0  0  0  0
   -1.7192   -3.3693   -0.9284 C   0  0  0  0  0  0  0  0  0  0  0  0
   -0.8303   -4.0778   -1.9536 C   0  0  0  0  0  0  0  0  0  0  0  0
   -3.1615   -3.8627   -1.0685 C   0  0  0  0  0  0  0  0  0  0  0  0
   -2.5800    0.4103    2.0323 C   0  0  0  0  0  0  0  0  0  0  0  0
   -4.1121    0.3675    1.9465 C   0  0  0  0  0  0  0  0  0  0  0  0
   -4.6343    0.9852    0.7752 O   0  0  0  0  0  0  0  0  0  0  0  0
   -5.0441    4.1734   -1.7815 H   0  0  0  0  0  0  0  0  0  0  0  0
   -4.3687    5.1426   -0.4433 H   0  0  0  0  0  0  0  0  0  0  0  0
   -4.5785    5.8795   -2.0618 H   0  0  0  0  0  0  0  0  0  0  0  0
   -2.5093    5.0646   -2.6064 H   0  0  0  0  0  0  0  0  0  0  0  0
   -0.3873    4.0244   -1.6303 H   0  0  0  0  0  0  0  0  0  0  0  0
   -1.0995    3.0756   -2.9435 H   0  0  0  0  0  0  0  0  0  0  0  0
   -1.1056    1.0522   -1.4458 H   0  0  0  0  0  0  0  0  0  0  0  0
    0.4883    1.6345   -1.8882 H   0  0  0  0  0  0  0  0  0  0  0  0
    0.7640    2.7941    0.2515 H   0  0  0  0  0  0  0  0  0  0  0  0
   -0.8297    2.3918    0.7822 H   0  0  0  0  0  0  0  0  0  0  0  0
    2.5703    1.4295    0.6859 H   0  0  0  0  0  0  0  0  0  0  0  0
    6.5457    0.0398    1.5158 H   0  0  0  0  0  0  0  0  0  0  0  0
    6.4268   -1.6923    1.1187 H   0  0  0  0  0  0  0  0  0  0  0  0
    7.6812   -0.8937   -0.8023 H   0  0  0  0  0  0  0  0  0  0  0  0
    6.8183    0.6581   -0.7923 H   0  0  0  0  0  0  0  0  0  0  0  0
    5.6842   -2.0657   -1.5677 H   0  0  0  0  0  0  0  0  0  0  0  0
    5.6313   -0.5744   -2.5300 H   0  0  0  0  0  0  0  0  0  0  0  0
    4.0375    0.4403   -1.0195 H   0  0  0  0  0  0  0  0  0  0  0  0
    3.5067   -1.2640   -0.9456 H   0  0  0  0  0  0  0  0  0  0  0  0
    2.0603   -2.4463    2.4641 H   0  0  0  0  0  0  0  0  0  0  0  0
   -0.3799   -2.2895    2.1259 H   0  0  0  0  0  0  0  0  0  0  0  0
   -3.4050   -1.0643   -0.1503 H   0  0  0  0  0  0  0  0  0  0  0  0
   -2.0152   -1.5464   -2.0737 H   0  0  0  0  0  0  0  0  0  0  0  0
   -0.5411   -1.5643   -1.1401 H   0  0  0  0  0  0  0  0  0  0  0  0
   -1.3612   -3.6452    0.0716 H   0  0  0  0  0  0  0  0  0  0  0  0
   -1.1400   -3.8435   -2.9778 H   0  0  0  0  0  0  0  0  0  0  0  0
   -0.8770   -5.1644   -1.8250 H   0  0  0  0  0  0  0  0  0  0  0  0
    0.2156   -3.7743   -1.8371 H   0  0  0  0  0  0  0  0  0  0  0  0
   -3.2066   -4.9545   -0.9912 H   0  0  0  0  0  0  0  0  0  0  0  0
   -3.8015   -3.4551   -0.2799 H   0  0  0  0  0  0  0  0  0  0  0  0
   -3.5870   -3.5754   -2.0360 H   0  0  0  0  0  0  0  0  0  0  0  0
   -2.2999    0.0214    3.0204 H   0  0  0  0  0  0  0  0  0  0  0  0
   -2.2799    1.4624    2.0124 H   0  0  0  0  0  0  0  0  0  0  0  0
   -4.5342    0.8985    2.8063 H   0  0  0  0  0  0  0  0  0  0  0  0
   -4.4823   -0.6622    1.9864 H   0  0  0  0  0  0  0  0  0  0  0  0
   -3.9738    1.6310    0.4360 H   0  0  0  0  0  0  0  0  0  0  0  0
  1  2  1  0
  2  3  1  0
  3  4  2  0
  3  5  1  0
  5  6  1  0
  6  7  1  0
  7  8  1  0
  8  9  1  0
  9 10  2  0
 10 11  1  0
 11 12  2  0
 11 13  1  0
 13 14  1  0
 14 15  1  0
 15 16  1  0
 16 17  1  0
 10 18  1  0
 18 19  2  0
 19 20  1  0
 20 21  1  0
 21 22  2  3
 22 23  1  0
 23 24  1  0
 24 25  1  0
 24 26  1  0
 21 27  1  0
 27 28  1  0
 28 29  1  0
 20  8  2  0
 17 13  1  0
  1 30  1  0
  1 31  1  0
  1 32  1  0
  2 33  1  0
  5 34  1  0
  5 35  1  0
  6 36  1  0
  6 37  1  0
  7 38  1  0
  7 39  1  0
  9 40  1  0
 14 41  1  0
 14 42  1  0
 15 43  1  0
 15 44  1  0
 16 45  1  0
 16 46  1  0
 17 47  1  0
 17 48  1  0
 18 49  1  0
 19 50  1  0
 22 51  1  0
 23 52  1  0
 23 53  1  0
 24 54  1  0
 25 55  1  0
 25 56  1  0
 25 57  1  0
 26 58  1  0
 26 59  1  0
 26 60  1  0
 27 61  1  0
 27 62  1  0
 28 63  1  0
 28 64  1  0
 29 65  1  0
M  END
>  <smiles>
CNC(=O)CCCc1cc(C(=O)N2CCCC2)ccc1C(=CCC(C)C)CCO

$$$$
