mol_a8b476b440fc
     RDKit          3D

 64 70  0  0  0  0  0  0  0  0999 V2000
    1.1429    3.6180    0.9741 C   0  0  0  0  0  0  0  0  0  0  0  0
    1.1895    4.0747   -0.4785 C   0  0  0  0  0  0  0  0  0  0  0  0
    1.0456    2.9873   -1.5652 C   0  0  0  0  0  0  0  0  0  0  0  0
    2.0574    1.8457   -1.4123 C   0  0  0  0  0  0  0  0  0  0  0  0
    1.2642    0.7388   -0.7403 C   0  0  0  0  0  0  0  0  0  0  0  0
    2.0128   -0.4363   -0.1726 C   0  0  0  0  0  0  0  0  0  0  0  0
    2.5764   -0.1414    1.2030 C   0  0  0  0  0  0  0  0  0  0  0  0
    3.3905   -1.3298    1.6686 C   0  0  0  0  0  0  0  0  0  0  0  0
    3.1641   -1.7955    2.7866 O   0  0  0  0  0  0  0  0  0  0  0  0
    4.3460   -1.7981    0.7635 N   0  0  0  0  0  0  0  0  0  0  0  0
    4.2095   -1.4875   -0.5967 C   0  0  0  0  0  0  0  0  0  0  0  0
    5.1358   -1.9199   -1.4718 C   0  0  0  0  0  0  0  0  0  0  0  0
    6.2605   -2.7045   -1.0504 C   0  0  0  0  0  0  0  0  0  0  0  0
    6.4110   -3.0159    0.2383 C   0  0  0  0  0  0  0  0  0  0  0  0
    5.4275   -2.5364    1.2474 C   0  0  0  0  0  0  0  0  0  0  0  0
    5.6733   -2.8057    2.4211 O   0  0  0  0  0  0  0  0  0  0  0  0
    3.1176   -0.7759   -1.0436 N   0  0  0  0  0  0  0  0  0  0  0  0
   -0.0623    1.0051   -0.7920 C   0  0  0  0  0  0  0  0  0  0  0  0
   -1.2875    0.3353   -0.2858 C   0  0  0  0  0  0  0  0  0  0  0  0
   -1.2334   -0.8048    0.5202 C   0  0  0  0  0  0  0  0  0  0  0  0
   -2.3841   -1.5247    0.8852 C   0  0  0  0  0  0  0  0  0  0  0  0
   -3.6457   -1.1182    0.4161 C   0  0  0  0  0  0  0  0  0  0  0  0
   -3.7333    0.0970   -0.3065 C   0  0  0  0  0  0  0  0  0  0  0  0
   -5.0412    0.6590   -0.7469 C   0  0  0  0  0  0  0  0  0  0  0  0
   -6.1236    0.1341   -0.5145 O   0  0  0  0  0  0  0  0  0  0  0  0
   -5.0051    1.8430   -1.4296 N   0  0  0  0  0  0  0  0  0  0  0  0
   -3.9193    2.6343   -1.6343 C   0  0  0  0  0  0  0  0  0  0  0  0
   -4.0654    3.7477   -2.1354 O   0  0  0  0  0  0  0  0  0  0  0  0
   -2.7059    2.1241   -1.2302 N   0  0  0  0  0  0  0  0  0  0  0  0
   -2.5723    0.8399   -0.6171 C   0  0  0  0  0  0  0  0  0  0  0  0
   -1.5390    2.9990   -1.2587 C   0  0  0  0  0  0  0  0  0  0  0  0
   -0.2904    2.2341   -1.6414 C   0  0  0  0  0  0  0  0  0  0  0  0
   -4.8727   -1.9439    0.7529 C   0  0  0  0  0  0  0  0  0  0  0  0
   -4.5787   -3.3297    1.3279 C   0  0  0  0  0  0  0  0  0  0  0  0
   -3.4873   -3.2502    2.3796 C   0  0  0  0  0  0  0  0  0  0  0  0
   -2.1965   -2.7624    1.7354 C   0  0  0  0  0  0  0  0  0  0  0  0
    1.2172    4.4880    1.6354 H   0  0  0  0  0  0  0  0  0  0  0  0
    0.2124    3.1005    1.2180 H   0  0  0  0  0  0  0  0  0  0  0  0
    1.9806    2.9581    1.2147 H   0  0  0  0  0  0  0  0  0  0  0  0
    2.1508    4.5819   -0.6341 H   0  0  0  0  0  0  0  0  0  0  0  0
    0.4227    4.8430   -0.6338 H   0  0  0  0  0  0  0  0  0  0  0  0
    1.2181    3.4932   -2.5249 H   0  0  0  0  0  0  0  0  0  0  0  0
    2.3991    1.5107   -2.3990 H   0  0  0  0  0  0  0  0  0  0  0  0
    2.9329    2.1488   -0.8301 H   0  0  0  0  0  0  0  0  0  0  0  0
    1.3804   -1.3262   -0.1462 H   0  0  0  0  0  0  0  0  0  0  0  0
    3.2376    0.7342    1.2056 H   0  0  0  0  0  0  0  0  0  0  0  0
    1.7714    0.0474    1.9227 H   0  0  0  0  0  0  0  0  0  0  0  0
    5.0549   -1.7029   -2.5325 H   0  0  0  0  0  0  0  0  0  0  0  0
    6.9737   -3.0409   -1.7958 H   0  0  0  0  0  0  0  0  0  0  0  0
    7.2405   -3.6046    0.6095 H   0  0  0  0  0  0  0  0  0  0  0  0
    2.9755   -0.7057   -2.0460 H   0  0  0  0  0  0  0  0  0  0  0  0
   -0.2921   -1.1714    0.9090 H   0  0  0  0  0  0  0  0  0  0  0  0
   -5.8929    2.2209   -1.7226 H   0  0  0  0  0  0  0  0  0  0  0  0
   -1.4743    3.4481   -0.2618 H   0  0  0  0  0  0  0  0  0  0  0  0
   -1.6935    3.8228   -1.9649 H   0  0  0  0  0  0  0  0  0  0  0  0
   -0.4257    1.8788   -2.6760 H   0  0  0  0  0  0  0  0  0  0  0  0
   -5.4714   -1.3842    1.4821 H   0  0  0  0  0  0  0  0  0  0  0  0
   -5.4729   -2.1030   -0.1496 H   0  0  0  0  0  0  0  0  0  0  0  0
   -4.2647   -4.0068    0.5230 H   0  0  0  0  0  0  0  0  0  0  0  0
   -5.4941   -3.7506    1.7589 H   0  0  0  0  0  0  0  0  0  0  0  0
   -3.3252   -4.2335    2.8349 H   0  0  0  0  0  0  0  0  0  0  0  0
   -3.7924   -2.5673    3.1824 H   0  0  0  0  0  0  0  0  0  0  0  0
   -1.4655   -2.5617    2.5280 H   0  0  0  0  0  0  0  0  0  0  0  0
   -1.7840   -3.5541    1.0971 H   0  0  0  0  0  0  0  0  0  0  0  0
  1  2  1  0
  2  3  1  0
  3  4  1  0
  4  5  1  0
  5  6  1  0
  6  7  1  0
  7  8  1  0
  8  9  2  0
  8 10  1  0
 10 11  1  0
 11 12  2  0
 12 13  1  0
 13 14  2  0
 14 15  1  0
 15 16  2  0
 11 17  1  0
  5 18  2  0
 18 19  1  0
 19 20  2  0
 20 21  1  0
 21 22  2  0
 22 23  1  0
 23 24  1  0
 24 25  2  0
 24 26  1  0
 26 27  1  0
 27 28  2  0
 27 29  1  0
 29 30  1  0
 29 31  1  0
 31 32  1  0
 22 33  1  0
 33 34  1  0
 34 35  1  0
 35 36  1  0
 32  3  1  0
 17  6  1  0
 32 18  1  0
 15 10  1  0
 30 19  1  0
 36 21  1  0
 30 23  2  0
  1 37  1  0
  1 38  1  0
  1 39  1  0
  2 40  1  0
  2 41  1  0
  3 42  1  0
  4 43  1  0
  4 44  1  0
  6 45  1  0
  7 46  1  0
  7 47  1  0
 12 48  1  0
 13 49  1  0
 14 50  1  0
 17 51  1  0
 20 52  1  0
 26 53  1  0
 31 54  1  0
 31 55  1  0
 32 56  1  0
 33 57  1  0
 33 58  1  0
 34 59  1  0
 34 60  1  0
 35 61  1  0
 35 62  1  0
 36 63  1  0
 36 64  1  0
M  END
>  <smiles>
CCC1CC(C2CC(=O)n3c(cccc3=O)N2)=C2c3cc4c(c5c(=O)[nH]c(=O)n(c35)CC21)CCCC4

$$$$
