mol_7257c8c5666b
     RDKit          3D

 51 55  0  0  0  0  0  0  0  0999 V2000
   -3.9340   -1.6309    1.6749 O   0  0  0  0  0  0  0  0  0  0  0  0
   -3.6329   -0.6863    0.9442 C   0  0  0  0  0  0  0  0  0  0  0  0
   -2.1806   -0.2301    0.7384 C   0  0  0  0  0  0  0  0  0  0  0  0
   -1.2255   -0.9380    1.5291 O   0  0  0  0  0  0  0  0  0  0  0  0
   -0.5156   -1.8285    0.7584 C   0  0  0  0  0  0  0  0  0  0  0  0
   -1.0947   -3.0649    0.4696 C   0  0  0  0  0  0  0  0  0  0  0  0
   -0.3994   -3.9816   -0.3071 C   0  0  0  0  0  0  0  0  0  0  0  0
    0.8740   -3.6622   -0.7806 C   0  0  0  0  0  0  0  0  0  0  0  0
    1.4889   -2.4270   -0.4768 C   0  0  0  0  0  0  0  0  0  0  0  0
    2.7805   -2.0885   -0.9356 C   0  0  0  0  0  0  0  0  0  0  0  0
    3.4505   -3.0215   -1.6907 O   0  0  0  0  0  0  0  0  0  0  0  0
    3.3741   -0.8484   -0.6425 C   0  0  0  0  0  0  0  0  0  0  0  0
    2.7019    0.0539    0.2062 C   0  0  0  0  0  0  0  0  0  0  0  0
    1.4133   -0.2781    0.6549 C   0  0  0  0  0  0  0  0  0  0  0  0
    0.7873   -1.4985    0.3208 C   0  0  0  0  0  0  0  0  0  0  0  0
    3.3447    1.3439    0.5965 C   0  0  0  0  0  0  0  0  0  0  0  0
    2.9732    2.1168    1.7775 C   0  0  0  0  0  0  0  0  0  0  0  0
    3.5689    3.2820    2.0534 C   0  0  0  0  0  0  0  0  0  0  0  0
    4.5463    3.7657    1.2309 N   0  0  0  0  0  0  0  0  0  0  0  0
    4.9934    3.1154    0.1087 C   0  0  0  0  0  0  0  0  0  0  0  0
    5.8785    3.5859   -0.5978 O   0  0  0  0  0  0  0  0  0  0  0  0
    4.3381    1.8063   -0.1967 C   0  0  0  0  0  0  0  0  0  0  0  0
    4.8530    1.0521   -1.3861 C   0  0  0  0  0  0  0  0  0  0  0  0
    4.7273   -0.4592   -1.1882 C   0  0  0  0  0  0  0  0  0  0  0  0
   -4.5972    0.0303    0.2607 N   0  0  0  0  0  0  0  0  0  0  0  0
   -6.0085   -0.2859    0.3951 C   0  0  0  0  0  0  0  0  0  0  0  0
   -6.7227    0.9060   -0.2247 C   0  0  0  0  0  0  0  0  0  0  0  0
   -5.7442    1.3673   -1.2979 C   0  0  0  0  0  0  0  0  0  0  0  0
   -4.3885    1.1536   -0.6392 C   0  0  0  0  0  0  0  0  0  0  0  0
   -1.9416   -0.2677   -0.3328 H   0  0  0  0  0  0  0  0  0  0  0  0
   -2.1201    0.8197    1.0478 H   0  0  0  0  0  0  0  0  0  0  0  0
   -2.0795   -3.3151    0.8557 H   0  0  0  0  0  0  0  0  0  0  0  0
   -0.8423   -4.9457   -0.5418 H   0  0  0  0  0  0  0  0  0  0  0  0
    1.4009   -4.3933   -1.3918 H   0  0  0  0  0  0  0  0  0  0  0  0
    4.4045   -2.8980   -1.5639 H   0  0  0  0  0  0  0  0  0  0  0  0
    0.8621    0.4224    1.2778 H   0  0  0  0  0  0  0  0  0  0  0  0
    2.2222    1.7286    2.4569 H   0  0  0  0  0  0  0  0  0  0  0  0
    3.3189    3.8770    2.9255 H   0  0  0  0  0  0  0  0  0  0  0  0
    4.9984    4.6486    1.4347 H   0  0  0  0  0  0  0  0  0  0  0  0
    4.2855    1.3666   -2.2713 H   0  0  0  0  0  0  0  0  0  0  0  0
    5.9069    1.2800   -1.5824 H   0  0  0  0  0  0  0  0  0  0  0  0
    5.4960   -0.8154   -0.4908 H   0  0  0  0  0  0  0  0  0  0  0  0
    4.9109   -0.9356   -2.1580 H   0  0  0  0  0  0  0  0  0  0  0  0
   -6.2795   -0.4483    1.4426 H   0  0  0  0  0  0  0  0  0  0  0  0
   -6.2005   -1.2061   -0.1679 H   0  0  0  0  0  0  0  0  0  0  0  0
   -6.8513    1.6977    0.5232 H   0  0  0  0  0  0  0  0  0  0  0  0
   -7.7068    0.6473   -0.6244 H   0  0  0  0  0  0  0  0  0  0  0  0
   -5.8368    0.7259   -2.1826 H   0  0  0  0  0  0  0  0  0  0  0  0
   -5.9041    2.4037   -1.6072 H   0  0  0  0  0  0  0  0  0  0  0  0
   -4.0949    2.0185   -0.0347 H   0  0  0  0  0  0  0  0  0  0  0  0
   -3.5991    0.9396   -1.3644 H   0  0  0  0  0  0  0  0  0  0  0  0
  1  2  2  0
  2  3  1  0
  3  4  1  0
  4  5  1  0
  5  6  1  0
  6  7  2  0
  7  8  1  0
  8  9  2  0
  9 10  1  0
 10 11  1  0
 10 12  2  0
 12 13  1  0
 13 14  2  0
 14 15  1  0
 13 16  1  0
 16 17  1  0
 17 18  2  0
 18 19  1  0
 19 20  1  0
 20 21  2  0
 20 22  1  0
 22 23  1  0
 23 24  1  0
  2 25  1  0
 25 26  1  0
 26 27  1  0
 27 28  1  0
 28 29  1  0
 15  5  2  0
 22 16  2  0
 29 25  1  0
 15  9  1  0
 24 12  1  0
  3 30  1  0
  3 31  1  0
  6 32  1  0
  7 33  1  0
  8 34  1  0
 11 35  1  0
 14 36  1  0
 17 37  1  0
 18 38  1  0
 19 39  1  0
 23 40  1  0
 23 41  1  0
 24 42  1  0
 24 43  1  0
 26 44  1  0
 26 45  1  0
 27 46  1  0
 27 47  1  0
 28 48  1  0
 28 49  1  0
 29 50  1  0
 29 51  1  0
M  END
>  <smiles>
O=C(COc1cccc2c(O)c3c(cc12)-c1cc[nH]c(=O)c1CC3)N1CCCC1

$$$$
