mol_8f16ebbd47d9
     RDKit          3D

 57 61  0  0  0  0  0  0  0  0999 V2000
   -7.2143    1.3099    1.2947 C   0  0  0  0  0  0  0  0  0  0  0  0
   -6.2845    0.3601    0.5269 C   0  0  0  0  0  0  0  0  0  0  0  0
   -6.9665   -1.0051    0.3834 C   0  0  0  0  0  0  0  0  0  0  0  0
   -4.8780    0.2030    1.1107 C   0  0  0  0  0  0  0  0  0  0  0  0
   -4.5486    0.6036    2.3489 C   0  0  0  0  0  0  0  0  0  0  0  0
   -3.1802    0.3991    2.8596 C   0  0  0  0  0  0  0  0  0  0  0  0
   -2.9503    0.6384    4.0454 O   0  0  0  0  0  0  0  0  0  0  0  0
   -2.1143   -0.1259    1.9219 C   0  0  0  0  0  0  0  0  0  0  0  0
   -2.4923   -0.0878    0.5045 N   0  0  0  0  0  0  0  0  0  0  0  0
   -1.5341   -0.0378   -0.5242 C   0  0  0  0  0  0  0  0  0  0  0  0
   -1.9727    0.1434   -1.7460 N   0  0  0  0  0  0  0  0  0  0  0  0
   -1.1107    0.2293   -2.8102 C   0  0  0  0  0  0  0  0  0  0  0  0
   -1.5175    0.3987   -3.9567 O   0  0  0  0  0  0  0  0  0  0  0  0
    0.2293    0.1161   -2.5492 N   0  0  0  0  0  0  0  0  0  0  0  0
    0.7760   -0.0810   -1.3061 C   0  0  0  0  0  0  0  0  0  0  0  0
   -0.0591   -0.1900   -0.2695 C   0  0  0  0  0  0  0  0  0  0  0  0
    0.3447   -0.5186    0.9709 F   0  0  0  0  0  0  0  0  0  0  0  0
    2.1620   -0.1983   -1.4024 N   0  0  0  0  0  0  0  0  0  0  0  0
    3.1416    0.0961   -0.4392 C   0  0  0  0  0  0  0  0  0  0  0  0
    2.8698    0.9159    0.6663 C   0  0  0  0  0  0  0  0  0  0  0  0
    3.8440    1.2206    1.6260 C   0  0  0  0  0  0  0  0  0  0  0  0
    5.1428    0.7173    1.5099 C   0  0  0  0  0  0  0  0  0  0  0  0
    6.1339    1.0100    2.4614 C   0  0  0  0  0  0  0  0  0  0  0  0
    7.4251    0.4994    2.3239 C   0  0  0  0  0  0  0  0  0  0  0  0
    7.7395   -0.3078    1.2351 C   0  0  0  0  0  0  0  0  0  0  0  0
    6.7629   -0.6052    0.2828 C   0  0  0  0  0  0  0  0  0  0  0  0
    5.4574   -0.0989    0.4063 C   0  0  0  0  0  0  0  0  0  0  0  0
    4.4574   -0.3890   -0.5457 C   0  0  0  0  0  0  0  0  0  0  0  0
    2.5342   -0.3653   -2.8324 C   0  0  0  0  0  0  0  0  0  0  0  0
    2.7059   -1.8463   -3.1817 C   0  0  0  0  0  0  0  0  0  0  0  0
    1.2848    0.1988   -3.5559 C   0  0  0  0  0  0  0  0  0  0  0  0
   -3.8764   -0.4392    0.1745 C   0  0  0  0  0  0  0  0  0  0  0  0
   -7.4653    0.9203    2.2873 H   0  0  0  0  0  0  0  0  0  0  0  0
   -6.7582    2.2988    1.4141 H   0  0  0  0  0  0  0  0  0  0  0  0
   -8.1547    1.4476    0.7491 H   0  0  0  0  0  0  0  0  0  0  0  0
   -6.1765    0.7928   -0.4770 H   0  0  0  0  0  0  0  0  0  0  0  0
   -6.3940   -1.6737   -0.2679 H   0  0  0  0  0  0  0  0  0  0  0  0
   -7.9633   -0.8969   -0.0582 H   0  0  0  0  0  0  0  0  0  0  0  0
   -7.0805   -1.4970    1.3560 H   0  0  0  0  0  0  0  0  0  0  0  0
   -5.2401    1.0565    3.0476 H   0  0  0  0  0  0  0  0  0  0  0  0
   -1.8698   -1.1523    2.2145 H   0  0  0  0  0  0  0  0  0  0  0  0
   -1.2513    0.5265    2.0923 H   0  0  0  0  0  0  0  0  0  0  0  0
    1.8912    1.3687    0.7957 H   0  0  0  0  0  0  0  0  0  0  0  0
    3.5735    1.8626    2.4613 H   0  0  0  0  0  0  0  0  0  0  0  0
    5.9047    1.6390    3.3186 H   0  0  0  0  0  0  0  0  0  0  0  0
    8.1832    0.7320    3.0671 H   0  0  0  0  0  0  0  0  0  0  0  0
    8.7442   -0.7077    1.1262 H   0  0  0  0  0  0  0  0  0  0  0  0
    7.0291   -1.2394   -0.5597 H   0  0  0  0  0  0  0  0  0  0  0  0
    4.7332   -1.0257   -1.3794 H   0  0  0  0  0  0  0  0  0  0  0  0
    3.4228    0.2096   -3.1184 H   0  0  0  0  0  0  0  0  0  0  0  0
    1.8038   -2.4240   -2.9495 H   0  0  0  0  0  0  0  0  0  0  0  0
    2.9129   -1.9635   -4.2507 H   0  0  0  0  0  0  0  0  0  0  0  0
    3.5302   -2.3064   -2.6314 H   0  0  0  0  0  0  0  0  0  0  0  0
    1.4166    1.2591   -3.8022 H   0  0  0  0  0  0  0  0  0  0  0  0
    1.0068   -0.3411   -4.4666 H   0  0  0  0  0  0  0  0  0  0  0  0
   -3.9880   -1.5295    0.2081 H   0  0  0  0  0  0  0  0  0  0  0  0
   -4.1224   -0.1199   -0.8439 H   0  0  0  0  0  0  0  0  0  0  0  0
  1  2  1  0
  2  3  1  0
  2  4  1  0
  4  5  2  0
  5  6  1  0
  6  7  2  0
  6  8  1  0
  8  9  1  0
  9 10  1  0
 10 11  2  0
 11 12  1  0
 12 13  2  0
 12 14  1  0
 14 15  1  0
 15 16  2  0
 16 17  1  0
 15 18  1  0
 18 19  1  0
 19 20  1  0
 20 21  2  0
 21 22  1  0
 22 23  2  0
 23 24  1  0
 24 25  2  0
 25 26  1  0
 26 27  2  0
 27 28  1  0
 18 29  1  0
 29 30  1  0
 29 31  1  0
  9 32  1  0
 32  4  1  0
 16 10  1  0
 28 19  2  0
 31 14  1  0
 27 22  1  0
  1 33  1  0
  1 34  1  0
  1 35  1  0
  2 36  1  0
  3 37  1  0
  3 38  1  0
  3 39  1  0
  5 40  1  0
  8 41  1  0
  8 42  1  0
 20 43  1  0
 21 44  1  0
 23 45  1  0
 24 46  1  0
 25 47  1  0
 26 48  1  0
 28 49  1  0
 29 50  1  0
 30 51  1  0
 30 52  1  0
 30 53  1  0
 31 54  1  0
 31 55  1  0
 32 56  1  0
 32 57  1  0
M  END
>  <smiles>
CC(C)C1=CC(=O)CN(c2nc(=O)n3c(c2F)N(c2ccc4ccccc4c2)C(C)C3)C1

$$$$
