mol_e1e963543bc6
     RDKit          3D

 42 44  0  0  0  0  0  0  0  0999 V2000
   -3.2586   -2.5501   -0.6846 C   0  0  0  0  0  0  0  0  0  0  0  0
   -2.5508   -2.0904    0.5852 C   0  0  0  0  0  0  0  0  0  0  0  0
   -2.0042   -3.2273    1.2536 O   0  0  0  0  0  0  0  0  0  0  0  0
   -1.4463   -1.0950    0.2742 C   0  0  0  0  0  0  0  0  0  0  0  0
   -0.1825   -1.5733   -0.1056 C   0  0  0  0  0  0  0  0  0  0  0  0
    0.8818   -0.7098   -0.4024 C   0  0  0  0  0  0  0  0  0  0  0  0
    2.2092   -1.3303   -0.7815 C   0  0  0  0  0  0  0  0  0  0  0  0
    3.0537   -1.6473    0.4446 C   0  0  0  0  0  0  0  0  0  0  0  0
    4.3767   -2.2025    0.0155 C   0  0  0  0  0  0  0  0  0  0  0  0
    4.6293   -3.3730   -0.2137 O   0  0  0  0  0  0  0  0  0  0  0  0
    5.3149   -1.2506   -0.1464 O   0  0  0  0  0  0  0  0  0  0  0  0
    0.6833    0.6831   -0.3067 C   0  0  0  0  0  0  0  0  0  0  0  0
   -0.6006    1.1840    0.0164 C   0  0  0  0  0  0  0  0  0  0  0  0
   -1.6552    0.3023    0.3150 C   0  0  0  0  0  0  0  0  0  0  0  0
   -2.9692    0.8750    0.7498 C   0  0  0  0  0  0  0  0  0  0  0  0
   -3.1224    2.2670    0.4643 N   0  0  0  0  0  0  0  0  0  0  0  0
   -2.1084    3.1252    0.2072 C   0  0  0  0  0  0  0  0  0  0  0  0
   -2.3653    4.3255    0.1205 O   0  0  0  0  0  0  0  0  0  0  0  0
   -0.8499    2.5869    0.0349 N   0  0  0  0  0  0  0  0  0  0  0  0
    0.2263    3.5084   -0.2985 C   0  0  0  0  0  0  0  0  0  0  0  0
    1.5923    2.9806    0.0843 C   0  0  0  0  0  0  0  0  0  0  0  0
    1.8159    1.6414   -0.5935 C   0  0  0  0  0  0  0  0  0  0  0  0
   -4.0582   -3.2580   -0.4408 H   0  0  0  0  0  0  0  0  0  0  0  0
   -3.6950   -1.7088   -1.2322 H   0  0  0  0  0  0  0  0  0  0  0  0
   -2.5694   -3.0765   -1.3549 H   0  0  0  0  0  0  0  0  0  0  0  0
   -3.2740   -1.6536    1.2805 H   0  0  0  0  0  0  0  0  0  0  0  0
   -2.7397   -3.8328    1.4448 H   0  0  0  0  0  0  0  0  0  0  0  0
   -0.0223   -2.6512   -0.1566 H   0  0  0  0  0  0  0  0  0  0  0  0
    2.7524   -0.6799   -1.4775 H   0  0  0  0  0  0  0  0  0  0  0  0
    2.0275   -2.2496   -1.3552 H   0  0  0  0  0  0  0  0  0  0  0  0
    2.5658   -2.3876    1.0896 H   0  0  0  0  0  0  0  0  0  0  0  0
    3.2210   -0.7626    1.0699 H   0  0  0  0  0  0  0  0  0  0  0  0
    6.1116   -1.7471   -0.4297 H   0  0  0  0  0  0  0  0  0  0  0  0
   -3.8004    0.3738    0.2440 H   0  0  0  0  0  0  0  0  0  0  0  0
   -3.0877    0.7526    1.8318 H   0  0  0  0  0  0  0  0  0  0  0  0
   -4.0233    2.7102    0.5742 H   0  0  0  0  0  0  0  0  0  0  0  0
    0.1695    3.7016   -1.3775 H   0  0  0  0  0  0  0  0  0  0  0  0
    0.0591    4.4681    0.2047 H   0  0  0  0  0  0  0  0  0  0  0  0
    2.3723    3.6897   -0.2139 H   0  0  0  0  0  0  0  0  0  0  0  0
    1.6542    2.8647    1.1741 H   0  0  0  0  0  0  0  0  0  0  0  0
    1.8980    1.7731   -1.6793 H   0  0  0  0  0  0  0  0  0  0  0  0
    2.7684    1.2439   -0.2286 H   0  0  0  0  0  0  0  0  0  0  0  0
  1  2  1  0
  2  3  1  0
  2  4  1  0
  4  5  1  0
  5  6  2  0
  6  7  1  0
  7  8  1  0
  8  9  1  0
  9 10  2  0
  9 11  1  0
  6 12  1  0
 12 13  2  0
 13 14  1  0
 14 15  1  0
 15 16  1  0
 16 17  1  0
 17 18  2  0
 17 19  1  0
 19 20  1  0
 20 21  1  0
 21 22  1  0
 14  4  2  0
 22 12  1  0
 19 13  1  0
  1 23  1  0
  1 24  1  0
  1 25  1  0
  2 26  1  0
  3 27  1  0
  5 28  1  0
  7 29  1  0
  7 30  1  0
  8 31  1  0
  8 32  1  0
 11 33  1  0
 15 34  1  0
 15 35  1  0
 16 36  1  0
 20 37  1  0
 20 38  1  0
 21 39  1  0
 21 40  1  0
 22 41  1  0
 22 42  1  0
M  END
>  <smiles>
CC(O)c1cc(CCC(=O)O)c2c3c1CNC(=O)N3CCC2

$$$$
