mol_5939b3348e0e
     RDKit          3D

 31 33  0  0  0  0  0  0  0  0999 V2000
    2.8450   -2.7464    0.3301 F   0  0  0  0  0  0  0  0  0  0  0  0
    3.2983   -1.7265   -0.4524 C   0  0  0  0  0  0  0  0  0  0  0  0
    2.8830   -2.0126   -1.7187 F   0  0  0  0  0  0  0  0  0  0  0  0
    4.6559   -1.8668   -0.4774 F   0  0  0  0  0  0  0  0  0  0  0  0
    2.8398   -0.3685    0.0254 C   0  0  0  0  0  0  0  0  0  0  0  0
    3.8107    0.5856    0.3869 C   0  0  0  0  0  0  0  0  0  0  0  0
    3.4372    1.8478    0.8329 C   0  0  0  0  0  0  0  0  0  0  0  0
    2.0882    2.1758    0.9235 C   0  0  0  0  0  0  0  0  0  0  0  0
    1.0946    1.2505    0.5709 C   0  0  0  0  0  0  0  0  0  0  0  0
   -0.2606    1.6056    0.6679 C   0  0  0  0  0  0  0  0  0  0  0  0
   -1.2823    0.7118    0.3188 C   0  0  0  0  0  0  0  0  0  0  0  0
   -0.9430   -0.5760   -0.1119 C   0  0  0  0  0  0  0  0  0  0  0  0
    0.4126   -0.9314   -0.2206 C   0  0  0  0  0  0  0  0  0  0  0  0
    1.4580   -0.0401    0.1167 C   0  0  0  0  0  0  0  0  0  0  0  0
   -1.9979   -1.5751   -0.5226 C   0  0  0  0  0  0  0  0  0  0  0  0
   -3.3938   -1.2224   -0.0122 C   0  0  0  0  0  0  0  0  0  0  0  0
   -3.7020    0.2454   -0.2781 C   0  0  0  0  0  0  0  0  0  0  0  0
   -2.7205    1.1411    0.4753 C   0  0  0  0  0  0  0  0  0  0  0  0
    4.8711    0.3442    0.3211 H   0  0  0  0  0  0  0  0  0  0  0  0
    4.1947    2.5768    1.1097 H   0  0  0  0  0  0  0  0  0  0  0  0
    1.8151    3.1693    1.2739 H   0  0  0  0  0  0  0  0  0  0  0  0
   -0.5319    2.5992    1.0221 H   0  0  0  0  0  0  0  0  0  0  0  0
    0.6411   -1.9344   -0.5792 H   0  0  0  0  0  0  0  0  0  0  0  0
   -2.0137   -1.6200   -1.6188 H   0  0  0  0  0  0  0  0  0  0  0  0
   -1.7309   -2.5727   -0.1538 H   0  0  0  0  0  0  0  0  0  0  0  0
   -4.1372   -1.8604   -0.5030 H   0  0  0  0  0  0  0  0  0  0  0  0
   -3.4593   -1.4219    1.0649 H   0  0  0  0  0  0  0  0  0  0  0  0
   -4.7265    0.4795    0.0319 H   0  0  0  0  0  0  0  0  0  0  0  0
   -3.6383    0.4446   -1.3555 H   0  0  0  0  0  0  0  0  0  0  0  0
   -2.9645    1.1261    1.5450 H   0  0  0  0  0  0  0  0  0  0  0  0
   -2.8430    2.1719    0.1220 H   0  0  0  0  0  0  0  0  0  0  0  0
  1  2  1  0
  2  3  1  0
  2  4  1  0
  2  5  1  0
  5  6  1  0
  6  7  2  0
  7  8  1  0
  8  9  2  0
  9 10  1  0
 10 11  2  0
 11 12  1  0
 12 13  2  0
 13 14  1  0
 12 15  1  0
 15 16  1  0
 16 17  1  0
 17 18  1  0
 14  5  2  0
 14  9  1  0
 18 11  1  0
  6 19  1  0
  7 20  1  0
  8 21  1  0
 10 22  1  0
 13 23  1  0
 15 24  1  0
 15 25  1  0
 16 26  1  0
 16 27  1  0
 17 28  1  0
 17 29  1  0
 18 30  1  0
 18 31  1  0
M  END
>  <smiles>
FC(F)(F)c1cccc2cc3c(cc12)CCCC3

$$$$
