mol_abe6d71c8572
     RDKit          3D

 39 40  0  0  0  0  0  0  0  0999 V2000
   -1.6070    2.4409   -0.7765 C   0  0  0  0  0  0  0  0  0  0  0  0
   -1.2678    1.4487    0.3428 C   0  0  0  0  0  0  0  0  0  0  0  0
   -0.1611    0.4629   -0.0719 C   0  0  0  0  0  0  0  0  0  0  0  0
    1.2229    1.0929   -0.1357 C   0  0  0  0  0  0  0  0  0  0  0  0
    1.4008    2.2732    0.1655 O   0  0  0  0  0  0  0  0  0  0  0  0
    2.2687    0.2714   -0.5426 N   0  0  0  0  0  0  0  0  0  0  0  0
    3.6166    0.8299   -0.6428 C   0  0  0  0  0  0  0  0  0  0  0  0
    4.6028    0.0223    0.1976 C   0  0  0  0  0  0  0  0  0  0  0  0
    4.5461   -1.4625   -0.1589 C   0  0  0  0  0  0  0  0  0  0  0  0
    3.1151   -1.9913   -0.0706 C   0  0  0  0  0  0  0  0  0  0  0  0
    2.1573   -1.1426   -0.9043 C   0  0  0  0  0  0  0  0  0  0  0  0
   -2.5030    0.6933    0.7760 C   0  0  0  0  0  0  0  0  0  0  0  0
   -3.0574    0.5535    2.0337 C   0  0  0  0  0  0  0  0  0  0  0  0
   -4.2056   -0.2628    1.9107 C   0  0  0  0  0  0  0  0  0  0  0  0
   -4.3325   -0.6060    0.5789 C   0  0  0  0  0  0  0  0  0  0  0  0
   -5.3381   -1.4340   -0.1266 C   0  0  0  0  0  0  0  0  0  0  0  0
   -6.5869   -0.9201   -0.0182 F   0  0  0  0  0  0  0  0  0  0  0  0
   -5.0618   -1.5268   -1.4542 F   0  0  0  0  0  0  0  0  0  0  0  0
   -5.3798   -2.6999    0.3556 F   0  0  0  0  0  0  0  0  0  0  0  0
   -3.2926   -0.0161   -0.0991 N   0  0  0  0  0  0  0  0  0  0  0  0
   -1.9217    1.9275   -1.6920 H   0  0  0  0  0  0  0  0  0  0  0  0
   -0.7474    3.0688   -1.0290 H   0  0  0  0  0  0  0  0  0  0  0  0
   -2.4234    3.1061   -0.4729 H   0  0  0  0  0  0  0  0  0  0  0  0
   -0.9216    2.0321    1.2069 H   0  0  0  0  0  0  0  0  0  0  0  0
   -0.3996    0.0294   -1.0507 H   0  0  0  0  0  0  0  0  0  0  0  0
   -0.1090   -0.3527    0.6611 H   0  0  0  0  0  0  0  0  0  0  0  0
    3.6421    1.8782   -0.3299 H   0  0  0  0  0  0  0  0  0  0  0  0
    3.9037    0.7998   -1.7007 H   0  0  0  0  0  0  0  0  0  0  0  0
    4.3616    0.1458    1.2607 H   0  0  0  0  0  0  0  0  0  0  0  0
    5.6193    0.4027    0.0485 H   0  0  0  0  0  0  0  0  0  0  0  0
    5.1957   -2.0322    0.5148 H   0  0  0  0  0  0  0  0  0  0  0  0
    4.9282   -1.6094   -1.1765 H   0  0  0  0  0  0  0  0  0  0  0  0
    2.7922   -1.9795    0.9779 H   0  0  0  0  0  0  0  0  0  0  0  0
    3.0816   -3.0327   -0.4091 H   0  0  0  0  0  0  0  0  0  0  0  0
    2.4048   -1.2248   -1.9694 H   0  0  0  0  0  0  0  0  0  0  0  0
    1.1415   -1.5210   -0.7797 H   0  0  0  0  0  0  0  0  0  0  0  0
   -2.6721    0.9948    2.9451 H   0  0  0  0  0  0  0  0  0  0  0  0
   -4.8720   -0.5681    2.7086 H   0  0  0  0  0  0  0  0  0  0  0  0
   -3.1405   -0.0917   -1.0987 H   0  0  0  0  0  0  0  0  0  0  0  0
  1  2  1  0
  2  3  1  0
  3  4  1  0
  4  5  2  0
  4  6  1  0
  6  7  1  0
  7  8  1  0
  8  9  1  0
  9 10  1  0
 10 11  1  0
  2 12  1  0
 12 13  2  0
 13 14  1  0
 14 15  2  0
 15 16  1  0
 16 17  1  0
 16 18  1  0
 16 19  1  0
 15 20  1  0
 11  6  1  0
 20 12  1  0
  1 21  1  0
  1 22  1  0
  1 23  1  0
  2 24  1  0
  3 25  1  0
  3 26  1  0
  7 27  1  0
  7 28  1  0
  8 29  1  0
  8 30  1  0
  9 31  1  0
  9 32  1  0
 10 33  1  0
 10 34  1  0
 11 35  1  0
 11 36  1  0
 13 37  1  0
 14 38  1  0
 20 39  1  0
M  END
>  <smiles>
CC(CC(=O)N1CCCCC1)c1ccc(C(F)(F)F)[nH]1

$$$$
