mol_f0ee25160317
     RDKit          3D

 35 35  0  0  0  0  0  0  0  0999 V2000
   -2.8079    1.5353   -1.1510 C   0  0  0  0  0  0  0  0  0  0  0  0
   -3.4786    0.2054   -0.7957 C   0  0  0  0  0  0  0  0  0  0  0  0
   -2.6781   -0.5504    0.2739 C   0  0  0  0  0  0  0  0  0  0  0  0
   -1.3956   -1.1530   -0.2637 C   0  0  0  0  0  0  0  0  0  0  0  0
   -1.1406   -1.2364   -1.4593 O   0  0  0  0  0  0  0  0  0  0  0  0
   -0.5630   -1.6148    0.7281 N   0  0  0  0  0  0  0  0  0  0  0  0
    0.7304   -2.1919    0.4398 C   0  0  0  0  0  0  0  0  0  0  0  0
    1.8253   -1.1888    0.6955 C   0  0  0  0  0  0  0  0  0  0  0  0
    2.5460   -1.2028    1.8967 C   0  0  0  0  0  0  0  0  0  0  0  0
    3.5452   -0.2581    2.1310 C   0  0  0  0  0  0  0  0  0  0  0  0
    3.8271    0.7148    1.1724 C   0  0  0  0  0  0  0  0  0  0  0  0
    3.1075    0.7582   -0.0286 C   0  0  0  0  0  0  0  0  0  0  0  0
    3.4293    1.8001   -1.0657 C   0  0  0  0  0  0  0  0  0  0  0  0
    4.6466    1.4834   -1.7276 O   0  0  0  0  0  0  0  0  0  0  0  0
    2.1122   -0.2010   -0.2603 C   0  0  0  0  0  0  0  0  0  0  0  0
   -4.8906    0.4488   -0.2949 C   0  0  0  0  0  0  0  0  0  0  0  0
   -5.6355    1.1006   -1.2130 F   0  0  0  0  0  0  0  0  0  0  0  0
   -4.8911    1.1863    0.8374 F   0  0  0  0  0  0  0  0  0  0  0  0
   -5.5159   -0.7179   -0.0204 F   0  0  0  0  0  0  0  0  0  0  0  0
   -2.7294    2.1885   -0.2752 H   0  0  0  0  0  0  0  0  0  0  0  0
   -3.3831    2.0670   -1.9165 H   0  0  0  0  0  0  0  0  0  0  0  0
   -1.7991    1.3809   -1.5465 H   0  0  0  0  0  0  0  0  0  0  0  0
   -3.5448   -0.4011   -1.7073 H   0  0  0  0  0  0  0  0  0  0  0  0
   -2.4399    0.1122    1.1150 H   0  0  0  0  0  0  0  0  0  0  0  0
   -3.2691   -1.3853    0.6709 H   0  0  0  0  0  0  0  0  0  0  0  0
   -0.8124   -1.4808    1.6984 H   0  0  0  0  0  0  0  0  0  0  0  0
    0.8494   -3.0659    1.0896 H   0  0  0  0  0  0  0  0  0  0  0  0
    0.7780   -2.5488   -0.5952 H   0  0  0  0  0  0  0  0  0  0  0  0
    2.3378   -1.9522    2.6570 H   0  0  0  0  0  0  0  0  0  0  0  0
    4.1068   -0.2796    3.0617 H   0  0  0  0  0  0  0  0  0  0  0  0
    4.6136    1.4428    1.3632 H   0  0  0  0  0  0  0  0  0  0  0  0
    3.5257    2.7875   -0.6023 H   0  0  0  0  0  0  0  0  0  0  0  0
    2.6366    1.8663   -1.8182 H   0  0  0  0  0  0  0  0  0  0  0  0
    4.8103    0.5334   -1.5974 H   0  0  0  0  0  0  0  0  0  0  0  0
    1.5469   -0.1829   -1.1927 H   0  0  0  0  0  0  0  0  0  0  0  0
  1  2  1  0
  2  3  1  0
  3  4  1  0
  4  5  2  0
  4  6  1  0
  6  7  1  0
  7  8  1  0
  8  9  2  0
  9 10  1  0
 10 11  2  0
 11 12  1  0
 12 13  1  0
 13 14  1  0
 12 15  2  0
  2 16  1  0
 16 17  1  0
 16 18  1  0
 16 19  1  0
 15  8  1  0
  1 20  1  0
  1 21  1  0
  1 22  1  0
  2 23  1  0
  3 24  1  0
  3 25  1  0
  6 26  1  0
  7 27  1  0
  7 28  1  0
  9 29  1  0
 10 30  1  0
 11 31  1  0
 13 32  1  0
 13 33  1  0
 14 34  1  0
 15 35  1  0
M  END
>  <smiles>
CC(CC(=O)NCc1cccc(CO)c1)C(F)(F)F

$$$$
