mol_04570e21981d
     RDKit          3D

 55 58  0  0  0  0  0  0  0  0999 V2000
    5.2340    0.3431    1.4979 C   0  0  0  0  0  0  0  0  0  0  0  0
    5.4360   -0.2572    0.1334 C   0  0  0  0  0  0  0  0  0  0  0  0
    6.6809   -0.1007   -0.4985 C   0  0  0  0  0  0  0  0  0  0  0  0
    6.9211   -0.6523   -1.7567 C   0  0  0  0  0  0  0  0  0  0  0  0
    5.9216   -1.3727   -2.4004 C   0  0  0  0  0  0  0  0  0  0  0  0
    4.6826   -1.5428   -1.7848 C   0  0  0  0  0  0  0  0  0  0  0  0
    4.4247   -0.9963   -0.5149 C   0  0  0  0  0  0  0  0  0  0  0  0
    3.0516   -1.1995    0.0902 C   0  0  0  0  0  0  0  0  0  0  0  0
    2.0744   -0.1156   -0.3681 C   0  0  0  0  0  0  0  0  0  0  0  0
    0.6891   -0.3024    0.2359 C   0  0  0  0  0  0  0  0  0  0  0  0
    0.5015   -1.1903    1.0664 O   0  0  0  0  0  0  0  0  0  0  0  0
   -0.3267    0.5672   -0.2037 N   0  0  0  0  0  0  0  0  0  0  0  0
    0.0323    1.8411   -0.8491 C   0  0  0  0  0  0  0  0  0  0  0  0
   -1.0178    2.3849   -1.8009 C   0  0  0  0  0  0  0  0  0  0  0  0
   -2.3748    2.4598   -1.1305 C   0  0  0  0  0  0  0  0  0  0  0  0
   -2.7611    1.0668   -0.6343 C   0  0  0  0  0  0  0  0  0  0  0  0
   -4.1915    1.0863   -0.0788 C   0  0  0  0  0  0  0  0  0  0  0  0
   -4.6204   -0.2557    0.4468 C   0  0  0  0  0  0  0  0  0  0  0  0
   -5.9862   -0.5100    0.6448 C   0  0  0  0  0  0  0  0  0  0  0  0
   -6.4159   -1.7398    1.1417 C   0  0  0  0  0  0  0  0  0  0  0  0
   -5.4849   -2.7263    1.4501 C   0  0  0  0  0  0  0  0  0  0  0  0
   -4.1249   -2.4790    1.2681 C   0  0  0  0  0  0  0  0  0  0  0  0
   -3.6789   -1.2406    0.7787 C   0  0  0  0  0  0  0  0  0  0  0  0
   -2.1898   -1.0255    0.5927 C   0  0  0  0  0  0  0  0  0  0  0  0
   -1.7299    0.4574    0.3731 C   0  0  0  0  0  0  0  0  0  0  0  0
   -1.7326    1.1842    1.7405 C   0  0  0  0  0  0  0  0  0  0  0  0
    5.1455   -0.4483    2.2488 H   0  0  0  0  0  0  0  0  0  0  0  0
    4.3364    0.9685    1.5170 H   0  0  0  0  0  0  0  0  0  0  0  0
    6.0765    0.9819    1.7840 H   0  0  0  0  0  0  0  0  0  0  0  0
    7.4784    0.4549   -0.0094 H   0  0  0  0  0  0  0  0  0  0  0  0
    7.8900   -0.5216   -2.2311 H   0  0  0  0  0  0  0  0  0  0  0  0
    6.1063   -1.8055   -3.3798 H   0  0  0  0  0  0  0  0  0  0  0  0
    3.9122   -2.1119   -2.3015 H   0  0  0  0  0  0  0  0  0  0  0  0
    2.6748   -2.1906   -0.1963 H   0  0  0  0  0  0  0  0  0  0  0  0
    3.1175   -1.2273    1.1841 H   0  0  0  0  0  0  0  0  0  0  0  0
    2.4550    0.8680   -0.0709 H   0  0  0  0  0  0  0  0  0  0  0  0
    1.9850   -0.1459   -1.4604 H   0  0  0  0  0  0  0  0  0  0  0  0
    0.2207    2.5606   -0.0430 H   0  0  0  0  0  0  0  0  0  0  0  0
    0.9654    1.7560   -1.4089 H   0  0  0  0  0  0  0  0  0  0  0  0
   -1.0798    1.7386   -2.6853 H   0  0  0  0  0  0  0  0  0  0  0  0
   -0.7202    3.3793   -2.1522 H   0  0  0  0  0  0  0  0  0  0  0  0
   -3.1135    2.8219   -1.8557 H   0  0  0  0  0  0  0  0  0  0  0  0
   -2.3569    3.1835   -0.3077 H   0  0  0  0  0  0  0  0  0  0  0  0
   -2.7676    0.4129   -1.5218 H   0  0  0  0  0  0  0  0  0  0  0  0
   -4.2896    1.8294    0.7217 H   0  0  0  0  0  0  0  0  0  0  0  0
   -4.8757    1.3878   -0.8828 H   0  0  0  0  0  0  0  0  0  0  0  0
   -6.7250    0.2525    0.4080 H   0  0  0  0  0  0  0  0  0  0  0  0
   -7.4761   -1.9278    1.2868 H   0  0  0  0  0  0  0  0  0  0  0  0
   -5.8151   -3.6874    1.8345 H   0  0  0  0  0  0  0  0  0  0  0  0
   -3.4056   -3.2578    1.5148 H   0  0  0  0  0  0  0  0  0  0  0  0
   -1.7063   -1.4379    1.4853 H   0  0  0  0  0  0  0  0  0  0  0  0
   -1.8789   -1.6317   -0.2689 H   0  0  0  0  0  0  0  0  0  0  0  0
   -1.4957    2.2476    1.6353 H   0  0  0  0  0  0  0  0  0  0  0  0
   -0.9775    0.7575    2.4108 H   0  0  0  0  0  0  0  0  0  0  0  0
   -2.6947    1.1086    2.2558 H   0  0  0  0  0  0  0  0  0  0  0  0
  1  2  1  0
  2  3  2  0
  3  4  1  0
  4  5  2  0
  5  6  1  0
  6  7  2  0
  7  8  1  0
  8  9  1  0
  9 10  1  0
 10 11  2  0
 10 12  1  0
 12 13  1  0
 13 14  1  0
 14 15  1  0
 15 16  1  0
 16 17  1  0
 17 18  1  0
 18 19  2  0
 19 20  1  0
 20 21  2  0
 21 22  1  0
 22 23  2  0
 23 24  1  0
 24 25  1  0
 25 26  1  0
  7  2  1  0
 25 12  1  0
 25 16  1  0
 23 18  1  0
  1 27  1  0
  1 28  1  0
  1 29  1  0
  3 30  1  0
  4 31  1  0
  5 32  1  0
  6 33  1  0
  8 34  1  0
  8 35  1  0
  9 36  1  0
  9 37  1  0
 13 38  1  0
 13 39  1  0
 14 40  1  0
 14 41  1  0
 15 42  1  0
 15 43  1  0
 16 44  1  0
 17 45  1  0
 17 46  1  0
 19 47  1  0
 20 48  1  0
 21 49  1  0
 22 50  1  0
 24 51  1  0
 24 52  1  0
 26 53  1  0
 26 54  1  0
 26 55  1  0
M  END
>  <smiles>
Cc1ccccc1CCC(=O)N1CCCC2Cc3ccccc3CC21C

$$$$
