mol_3b0054497b2e
     RDKit          3D

 58 62  0  0  0  0  0  0  0  0999 V2000
    6.9766   -1.9392   -0.9739 C   0  0  0  0  0  0  0  0  0  0  0  0
    6.4634   -0.5006   -0.9945 C   0  0  0  0  0  0  0  0  0  0  0  0
    7.6175    0.4713   -0.6902 C   0  0  0  0  0  0  0  0  0  0  0  0
    7.1954    1.9081   -0.8398 C   0  0  0  0  0  0  0  0  0  0  0  0
    7.6932    2.7461   -1.7498 C   0  0  0  0  0  0  0  0  0  0  0  0
    8.6267    2.3635   -2.6395 F   0  0  0  0  0  0  0  0  0  0  0  0
    5.4629   -0.3325    0.0198 O   0  0  0  0  0  0  0  0  0  0  0  0
    4.1677   -0.7693   -0.3859 C   0  0  0  0  0  0  0  0  0  0  0  0
    3.1895   -0.5081    0.7334 C   0  0  0  0  0  0  0  0  0  0  0  0
    3.5104   -0.8481    2.0567 C   0  0  0  0  0  0  0  0  0  0  0  0
    2.5948   -0.6246    3.0840 C   0  0  0  0  0  0  0  0  0  0  0  0
    3.0232   -1.0399    4.7029 Cl  0  0  0  0  0  0  0  0  0  0  0  0
    1.3418   -0.0722    2.8039 C   0  0  0  0  0  0  0  0  0  0  0  0
    0.4329    0.1566    3.8067 O   0  0  0  0  0  0  0  0  0  0  0  0
    0.9935    0.2542    1.4885 C   0  0  0  0  0  0  0  0  0  0  0  0
   -0.3191    0.8341    1.1747 C   0  0  0  0  0  0  0  0  0  0  0  0
   -1.3423    0.2087    0.5679 C   0  0  0  0  0  0  0  0  0  0  0  0
   -1.2668   -1.2053    0.1119 C   0  0  0  0  0  0  0  0  0  0  0  0
   -2.2267   -1.8680   -0.4515 N   0  0  0  0  0  0  0  0  0  0  0  0
   -3.4542   -1.2587   -0.6056 C   0  0  0  0  0  0  0  0  0  0  0  0
   -3.6087    0.1959   -0.2934 C   0  0  0  0  0  0  0  0  0  0  0  0
   -2.5910    0.8733    0.2753 C   0  0  0  0  0  0  0  0  0  0  0  0
   -4.9117    0.8743   -0.7252 C   0  0  0  0  0  0  0  0  0  0  0  0
   -5.3751    1.9168    0.1808 N   0  0  0  0  0  0  0  0  0  0  0  0
   -6.6734    2.3707    0.2492 C   0  0  0  0  0  0  0  0  0  0  0  0
   -6.9102    3.4183    0.8522 O   0  0  0  0  0  0  0  0  0  0  0  0
   -7.8011    1.5563   -0.4237 C   0  0  0  0  0  0  0  0  0  0  0  0
   -7.3336    0.2049   -0.8060 C   0  0  0  0  0  0  0  0  0  0  0  0
   -6.0337   -0.0731   -0.8952 C   0  0  0  0  0  0  0  0  0  0  0  0
   -5.8123   -1.4735   -1.0727 C   0  0  0  0  0  0  0  0  0  0  0  0
   -7.0075   -2.0746   -1.1935 C   0  0  0  0  0  0  0  0  0  0  0  0
   -8.1164   -1.0496   -1.0291 C   0  0  0  0  0  0  0  0  0  0  0  0
   -4.4925   -2.0250   -1.0068 C   0  0  0  0  0  0  0  0  0  0  0  0
    1.9244    0.0375    0.4603 C   0  0  0  0  0  0  0  0  0  0  0  0
    6.1825   -2.6460   -1.2329 H   0  0  0  0  0  0  0  0  0  0  0  0
    7.3293   -2.2135    0.0264 H   0  0  0  0  0  0  0  0  0  0  0  0
    7.7957   -2.0781   -1.6865 H   0  0  0  0  0  0  0  0  0  0  0  0
    6.0447   -0.2691   -1.9825 H   0  0  0  0  0  0  0  0  0  0  0  0
    8.4676    0.2551   -1.3485 H   0  0  0  0  0  0  0  0  0  0  0  0
    7.9614    0.3318    0.3424 H   0  0  0  0  0  0  0  0  0  0  0  0
    6.4402    2.2691   -0.1456 H   0  0  0  0  0  0  0  0  0  0  0  0
    7.4224    3.7834   -1.8855 H   0  0  0  0  0  0  0  0  0  0  0  0
    3.8698   -0.2173   -1.2848 H   0  0  0  0  0  0  0  0  0  0  0  0
    4.1702   -1.8414   -0.6080 H   0  0  0  0  0  0  0  0  0  0  0  0
    4.4853   -1.2772    2.2809 H   0  0  0  0  0  0  0  0  0  0  0  0
    0.8400   -0.1434    4.6411 H   0  0  0  0  0  0  0  0  0  0  0  0
   -0.4301    1.8617    1.5155 H   0  0  0  0  0  0  0  0  0  0  0  0
   -0.3087   -1.7273    0.2584 H   0  0  0  0  0  0  0  0  0  0  0  0
   -2.6586    1.9336    0.4896 H   0  0  0  0  0  0  0  0  0  0  0  0
   -4.7244    1.3606   -1.6923 H   0  0  0  0  0  0  0  0  0  0  0  0
   -4.7121    2.5081    0.6584 H   0  0  0  0  0  0  0  0  0  0  0  0
   -8.1589    2.1067   -1.2989 H   0  0  0  0  0  0  0  0  0  0  0  0
   -8.6156    1.4734    0.3039 H   0  0  0  0  0  0  0  0  0  0  0  0
   -7.1769   -3.1348   -1.3069 H   0  0  0  0  0  0  0  0  0  0  0  0
   -8.7400   -1.2933   -0.1639 H   0  0  0  0  0  0  0  0  0  0  0  0
   -8.7315   -0.9879   -1.9313 H   0  0  0  0  0  0  0  0  0  0  0  0
   -4.3520   -3.0825   -1.2027 H   0  0  0  0  0  0  0  0  0  0  0  0
    1.6622    0.3003   -0.5638 H   0  0  0  0  0  0  0  0  0  0  0  0
  1  2  1  0
  2  3  1  0
  3  4  1  0
  4  5  2  3
  5  6  1  0
  2  7  1  0
  7  8  1  0
  8  9  1  0
  9 10  1  0
 10 11  2  0
 11 12  1  0
 11 13  1  0
 13 14  1  0
 13 15  2  0
 15 16  1  0
 16 17  2  3
 17 18  1  0
 18 19  2  0
 19 20  1  0
 20 21  1  0
 21 22  2  0
 21 23  1  0
 23 24  1  0
 24 25  1  0
 25 26  2  0
 25 27  1  0
 27 28  1  0
 28 29  2  0
 29 30  1  0
 30 31  2  0
 31 32  1  0
 30 33  1  0
 15 34  1  0
 34  9  2  0
 22 17  1  0
 29 23  1  0
 33 20  2  0
 32 28  1  0
  1 35  1  0
  1 36  1  0
  1 37  1  0
  2 38  1  0
  3 39  1  0
  3 40  1  0
  4 41  1  0
  5 42  1  0
  8 43  1  0
  8 44  1  0
 10 45  1  0
 14 46  1  0
 16 47  1  0
 18 48  1  0
 22 49  1  0
 23 50  1  0
 24 51  1  0
 27 52  1  0
 27 53  1  0
 31 54  1  0
 32 55  1  0
 32 56  1  0
 33 57  1  0
 34 58  1  0
M  END
>  <smiles>
CC(CC=CF)OCc1cc(Cl)c(O)c(C=c2cnc3c(c2)C2NC(=O)CC4=C2C(=CC4)C=3)c1

$$$$
