mol_ff1c1cc2ce50
     RDKit          3D

 69 73  0  0  0  0  0  0  0  0999 V2000
    5.2779   -1.1865    1.0505 C   0  0  0  0  0  0  0  0  0  0  0  0
    5.2566    0.1801    1.6772 C   0  0  0  0  0  0  0  0  0  0  0  0
    6.4000    0.6299    2.3583 C   0  0  0  0  0  0  0  0  0  0  0  0
    6.4285    1.8878    2.9600 C   0  0  0  0  0  0  0  0  0  0  0  0
    5.3135    2.7147    2.8912 C   0  0  0  0  0  0  0  0  0  0  0  0
    4.1692    2.2822    2.2233 C   0  0  0  0  0  0  0  0  0  0  0  0
    4.1214    1.0147    1.6159 C   0  0  0  0  0  0  0  0  0  0  0  0
    2.8540    0.6163    0.8938 C   0  0  0  0  0  0  0  0  0  0  0  0
    2.8475    1.1063   -0.5505 C   0  0  0  0  0  0  0  0  0  0  0  0
    1.5381    0.7415   -1.2184 C   0  0  0  0  0  0  0  0  0  0  0  0
    0.6095    1.5472   -1.2276 O   0  0  0  0  0  0  0  0  0  0  0  0
    1.4014   -0.5347   -1.7361 N   0  0  0  0  0  0  0  0  0  0  0  0
    2.4780   -1.5048   -1.9317 C   0  0  0  0  0  0  0  0  0  0  0  0
    1.9714   -2.4630   -2.9956 C   0  0  0  0  0  0  0  0  0  0  0  0
    0.4602   -2.4135   -2.8306 C   0  0  0  0  0  0  0  0  0  0  0  0
    0.1630   -0.9352   -2.4666 C   0  0  0  0  0  0  0  0  0  0  0  0
    0.0473   -0.1072   -3.7681 C   0  0  0  0  0  0  0  0  0  0  0  0
   -1.2282   -0.9163   -1.7228 C   0  0  0  0  0  0  0  0  0  0  0  0
   -2.2443   -0.7697   -2.4191 O   0  0  0  0  0  0  0  0  0  0  0  0
   -1.2905   -1.2775   -0.3606 N   0  0  0  0  0  0  0  0  0  0  0  0
   -0.1059   -1.7035    0.2962 N   0  0  0  0  0  0  0  0  0  0  0  0
   -0.1187   -2.2117    1.5680 C   0  0  0  0  0  0  0  0  0  0  0  0
   -1.2479   -2.3044    2.2779 C   0  0  0  0  0  0  0  0  0  0  0  0
   -2.4638   -1.8117    1.6692 C   0  0  0  0  0  0  0  0  0  0  0  0
   -2.4679   -1.3221    0.4080 C   0  0  0  0  0  0  0  0  0  0  0  0
   -3.7582   -0.8148   -0.0986 C   0  0  0  0  0  0  0  0  0  0  0  0
   -4.7049   -1.7235   -0.6015 C   0  0  0  0  0  0  0  0  0  0  0  0
   -5.9382   -1.2738   -1.0759 C   0  0  0  0  0  0  0  0  0  0  0  0
   -6.2419    0.0861   -1.0414 C   0  0  0  0  0  0  0  0  0  0  0  0
   -5.3253    0.9951   -0.5111 C   0  0  0  0  0  0  0  0  0  0  0  0
   -4.0827    0.5526   -0.0409 C   0  0  0  0  0  0  0  0  0  0  0  0
   -3.1221    1.4316    0.3912 O   0  0  0  0  0  0  0  0  0  0  0  0
   -3.5164    2.1305    1.5682 C   0  0  0  0  0  0  0  0  0  0  0  0
   -4.3809    3.3373    1.2411 C   0  0  0  0  0  0  0  0  0  0  0  0
   -5.7484    2.9082    0.7330 C   0  0  0  0  0  0  0  0  0  0  0  0
   -5.6798    2.3173   -0.5644 O   0  0  0  0  0  0  0  0  0  0  0  0
    5.0377   -1.1233   -0.0149 H   0  0  0  0  0  0  0  0  0  0  0  0
    6.2662   -1.6516    1.1318 H   0  0  0  0  0  0  0  0  0  0  0  0
    4.5605   -1.8445    1.5507 H   0  0  0  0  0  0  0  0  0  0  0  0
    7.2843   -0.0006    2.4248 H   0  0  0  0  0  0  0  0  0  0  0  0
    7.3219    2.2212    3.4813 H   0  0  0  0  0  0  0  0  0  0  0  0
    5.3328    3.6966    3.3566 H   0  0  0  0  0  0  0  0  0  0  0  0
    3.3057    2.9439    2.1772 H   0  0  0  0  0  0  0  0  0  0  0  0
    1.9875    1.0246    1.4317 H   0  0  0  0  0  0  0  0  0  0  0  0
    2.7200   -0.4695    0.9399 H   0  0  0  0  0  0  0  0  0  0  0  0
    2.9411    2.1995   -0.5847 H   0  0  0  0  0  0  0  0  0  0  0  0
    3.7007    0.7199   -1.1128 H   0  0  0  0  0  0  0  0  0  0  0  0
    2.6508   -2.0200   -0.9818 H   0  0  0  0  0  0  0  0  0  0  0  0
    3.4049   -1.0201   -2.2461 H   0  0  0  0  0  0  0  0  0  0  0  0
    2.3790   -3.4711   -2.8782 H   0  0  0  0  0  0  0  0  0  0  0  0
    2.2516   -2.1028   -3.9923 H   0  0  0  0  0  0  0  0  0  0  0  0
   -0.0628   -2.7455   -3.7338 H   0  0  0  0  0  0  0  0  0  0  0  0
    0.1651   -3.0946   -2.0234 H   0  0  0  0  0  0  0  0  0  0  0  0
   -0.6955   -0.5341   -4.4517 H   0  0  0  0  0  0  0  0  0  0  0  0
   -0.2661    0.9212   -3.5580 H   0  0  0  0  0  0  0  0  0  0  0  0
    1.0010   -0.0540   -4.3047 H   0  0  0  0  0  0  0  0  0  0  0  0
    0.7615   -1.3184   -0.0575 H   0  0  0  0  0  0  0  0  0  0  0  0
    0.8472   -2.5066    1.9626 H   0  0  0  0  0  0  0  0  0  0  0  0
   -1.2701   -2.6929    3.2881 H   0  0  0  0  0  0  0  0  0  0  0  0
   -3.3654   -1.8373    2.2729 H   0  0  0  0  0  0  0  0  0  0  0  0
   -4.4674   -2.7835   -0.6535 H   0  0  0  0  0  0  0  0  0  0  0  0
   -6.6511   -1.9801   -1.4922 H   0  0  0  0  0  0  0  0  0  0  0  0
   -7.1888    0.4422   -1.4373 H   0  0  0  0  0  0  0  0  0  0  0  0
   -2.5932    2.4795    2.0446 H   0  0  0  0  0  0  0  0  0  0  0  0
   -4.0030    1.4591    2.2887 H   0  0  0  0  0  0  0  0  0  0  0  0
   -4.5052    3.9477    2.1419 H   0  0  0  0  0  0  0  0  0  0  0  0
   -3.8834    3.9432    0.4748 H   0  0  0  0  0  0  0  0  0  0  0  0
   -6.2612    2.2467    1.4445 H   0  0  0  0  0  0  0  0  0  0  0  0
   -6.3779    3.7996    0.6315 H   0  0  0  0  0  0  0  0  0  0  0  0
  1  2  1  0
  2  3  2  0
  3  4  1  0
  4  5  2  0
  5  6  1  0
  6  7  2  0
  7  8  1  0
  8  9  1  0
  9 10  1  0
 10 11  2  0
 10 12  1  0
 12 13  1  0
 13 14  1  0
 14 15  1  0
 15 16  1  0
 16 17  1  0
 16 18  1  0
 18 19  2  0
 18 20  1  0
 20 21  1  0
 21 22  1  0
 22 23  2  0
 23 24  1  0
 24 25  2  0
 25 26  1  0
 26 27  2  0
 27 28  1  0
 28 29  2  0
 29 30  1  0
 30 31  2  0
 31 32  1  0
 32 33  1  0
 33 34  1  0
 34 35  1  0
 35 36  1  0
  7  2  1  0
 16 12  1  0
 25 20  1  0
 31 26  1  0
 36 30  1  0
  1 37  1  0
  1 38  1  0
  1 39  1  0
  3 40  1  0
  4 41  1  0
  5 42  1  0
  6 43  1  0
  8 44  1  0
  8 45  1  0
  9 46  1  0
  9 47  1  0
 13 48  1  0
 13 49  1  0
 14 50  1  0
 14 51  1  0
 15 52  1  0
 15 53  1  0
 17 54  1  0
 17 55  1  0
 17 56  1  0
 21 57  1  0
 22 58  1  0
 23 59  1  0
 24 60  1  0
 27 61  1  0
 28 62  1  0
 29 63  1  0
 33 64  1  0
 33 65  1  0
 34 66  1  0
 34 67  1  0
 35 68  1  0
 35 69  1  0
M  END
>  <smiles>
Cc1ccccc1CCC(=O)N1CCCC1(C)C(=O)N1NC=CC=C1c1cccc2c1OCCCO2

$$$$
