mol_1859db7a89aa
     RDKit          3D

 59 62  0  0  0  0  0  0  0  0999 V2000
    7.9695    0.9996    2.4070 C   0  0  0  0  0  0  0  0  0  0  0  0
    7.7208    0.4421    1.0277 C   0  0  0  0  0  0  0  0  0  0  0  0
    8.5632    0.5801    0.1415 O   0  0  0  0  0  0  0  0  0  0  0  0
    6.5228   -0.2210    0.8294 N   0  0  0  0  0  0  0  0  0  0  0  0
    6.2019   -0.7485   -0.4992 C   0  0  0  0  0  0  0  0  0  0  0  0
    4.6940   -0.6445   -0.7978 C   0  0  0  0  0  0  0  0  0  0  0  0
    3.8146   -1.3191    0.1920 N   0  0  0  0  0  0  0  0  0  0  0  0
    2.5411   -0.5870    0.3834 C   0  0  0  0  0  0  0  0  0  0  0  0
    1.6439   -0.5426   -0.8776 C   0  0  0  0  0  0  0  0  0  0  0  0
    2.0764   -0.7315   -2.0157 O   0  0  0  0  0  0  0  0  0  0  0  0
    0.2926   -0.2418   -0.6670 N   0  0  0  0  0  0  0  0  0  0  0  0
   -0.2737    0.1248    0.6302 C   0  0  0  0  0  0  0  0  0  0  0  0
   -1.5767    0.8983    0.4852 C   0  0  0  0  0  0  0  0  0  0  0  0
   -2.6202    0.0696   -0.2936 C   0  0  0  0  0  0  0  0  0  0  0  0
   -3.7453    0.8787   -0.7699 N   0  0  0  0  0  0  0  0  0  0  0  0
   -3.5755    2.0546   -1.4635 C   0  0  0  0  0  0  0  0  0  0  0  0
   -4.7766    2.7133   -1.4685 C   0  0  0  0  0  0  0  0  0  0  0  0
   -5.7329    1.8791   -0.8199 C   0  0  0  0  0  0  0  0  0  0  0  0
   -7.0892    2.3003   -0.5382 C   0  0  0  0  0  0  0  0  0  0  0  0
   -7.7789    3.0021   -1.2641 O   0  0  0  0  0  0  0  0  0  0  0  0
   -7.5398    1.9621    0.6905 O   0  0  0  0  0  0  0  0  0  0  0  0
   -5.1053    0.6487   -0.5956 C   0  0  0  0  0  0  0  0  0  0  0  0
   -5.8298   -0.7425   -0.2669 C   0  0  0  0  0  0  0  0  0  0  0  0
   -7.2454   -0.9395   -0.1668 C   0  0  0  0  0  0  0  0  0  0  0  0
   -7.6001   -2.2426    0.1102 C   0  0  0  0  0  0  0  0  0  0  0  0
   -6.2401   -3.2616    0.2058 S   0  0  0  0  0  0  0  0  0  0  0  0
   -5.1846   -1.9554   -0.1385 C   0  0  0  0  0  0  0  0  0  0  0  0
   -1.9979   -0.7682   -1.4235 C   0  0  0  0  0  0  0  0  0  0  0  0
   -0.6137   -0.2675   -1.8161 C   0  0  0  0  0  0  0  0  0  0  0  0
    4.5069   -1.5444    1.4763 C   0  0  0  0  0  0  0  0  0  0  0  0
    5.5209   -0.4550    1.8700 C   0  0  0  0  0  0  0  0  0  0  0  0
    8.8542    1.6429    2.3847 H   0  0  0  0  0  0  0  0  0  0  0  0
    7.1198    1.6016    2.7390 H   0  0  0  0  0  0  0  0  0  0  0  0
    8.1497    0.1827    3.1105 H   0  0  0  0  0  0  0  0  0  0  0  0
    6.5273   -1.7956   -0.5223 H   0  0  0  0  0  0  0  0  0  0  0  0
    6.7688   -0.2135   -1.2687 H   0  0  0  0  0  0  0  0  0  0  0  0
    4.5138   -1.0791   -1.7866 H   0  0  0  0  0  0  0  0  0  0  0  0
    4.4506    0.4249   -0.8563 H   0  0  0  0  0  0  0  0  0  0  0  0
    2.7229    0.4408    0.7189 H   0  0  0  0  0  0  0  0  0  0  0  0
    1.9694   -1.1086    1.1595 H   0  0  0  0  0  0  0  0  0  0  0  0
    0.4489    0.7263    1.1900 H   0  0  0  0  0  0  0  0  0  0  0  0
   -0.4388   -0.8038    1.1890 H   0  0  0  0  0  0  0  0  0  0  0  0
   -1.9740    1.1565    1.4745 H   0  0  0  0  0  0  0  0  0  0  0  0
   -1.3585    1.8498   -0.0134 H   0  0  0  0  0  0  0  0  0  0  0  0
   -3.0385   -0.6091    0.4542 H   0  0  0  0  0  0  0  0  0  0  0  0
   -2.6081    2.3646   -1.8367 H   0  0  0  0  0  0  0  0  0  0  0  0
   -4.9534    3.7078   -1.8608 H   0  0  0  0  0  0  0  0  0  0  0  0
   -8.4163    2.3949    0.7291 H   0  0  0  0  0  0  0  0  0  0  0  0
   -8.0015   -0.1809   -0.2963 H   0  0  0  0  0  0  0  0  0  0  0  0
   -8.5960   -2.6421    0.2442 H   0  0  0  0  0  0  0  0  0  0  0  0
   -4.1421   -2.2003   -0.2327 H   0  0  0  0  0  0  0  0  0  0  0  0
   -1.8947   -1.8031   -1.0708 H   0  0  0  0  0  0  0  0  0  0  0  0
   -2.6468   -0.8058   -2.3064 H   0  0  0  0  0  0  0  0  0  0  0  0
   -0.6641    0.7514   -2.2168 H   0  0  0  0  0  0  0  0  0  0  0  0
   -0.2077   -0.9061   -2.6078 H   0  0  0  0  0  0  0  0  0  0  0  0
    5.0476   -2.4961    1.3859 H   0  0  0  0  0  0  0  0  0  0  0  0
    3.7922   -1.6975    2.2941 H   0  0  0  0  0  0  0  0  0  0  0  0
    5.0071    0.4969    2.0483 H   0  0  0  0  0  0  0  0  0  0  0  0
    6.0251   -0.7403    2.7988 H   0  0  0  0  0  0  0  0  0  0  0  0
  1  2  1  0
  2  3  2  0
  2  4  1  0
  4  5  1  0
  5  6  1  0
  6  7  1  0
  7  8  1  0
  8  9  1  0
  9 10  2  0
  9 11  1  0
 11 12  1  0
 12 13  1  0
 13 14  1  0
 14 15  1  0
 15 16  1  0
 16 17  2  0
 17 18  1  0
 18 19  1  0
 19 20  2  0
 19 21  1  0
 18 22  2  0
 22 23  1  0
 23 24  1  0
 24 25  2  0
 25 26  1  0
 26 27  1  0
 14 28  1  0
 28 29  1  0
  7 30  1  0
 30 31  1  0
 31  4  1  0
 29 11  1  0
 22 15  1  0
 27 23  2  0
  1 32  1  0
  1 33  1  0
  1 34  1  0
  5 35  1  0
  5 36  1  0
  6 37  1  0
  6 38  1  0
  8 39  1  0
  8 40  1  0
 12 41  1  0
 12 42  1  0
 13 43  1  0
 13 44  1  0
 14 45  1  0
 16 46  1  0
 17 47  1  0
 21 48  1  0
 24 49  1  0
 25 50  1  0
 27 51  1  0
 28 52  1  0
 28 53  1  0
 29 54  1  0
 29 55  1  0
 30 56  1  0
 30 57  1  0
 31 58  1  0
 31 59  1  0
M  END
>  <smiles>
CC(=O)N1CCN(CC(=O)N2CCC(n3ccc(C(=O)O)c3-c3ccsc3)CC2)CC1

$$$$
