mol_cfa04d98b95f
     RDKit          3D

 36 37  0  0  0  0  0  0  0  0999 V2000
    1.0506    0.1036   -2.6288 O   0  0  0  0  0  0  0  0  0  0  0  0
    1.1648    0.0135   -1.4086 C   0  0  0  0  0  0  0  0  0  0  0  0
    2.5324   -0.0919   -0.8623 C   0  0  0  0  0  0  0  0  0  0  0  0
    2.9152   -1.2210   -0.1272 C   0  0  0  0  0  0  0  0  0  0  0  0
    4.2200   -1.3205    0.3554 C   0  0  0  0  0  0  0  0  0  0  0  0
    5.1381   -0.3020    0.0901 C   0  0  0  0  0  0  0  0  0  0  0  0
    4.7525    0.8079   -0.6650 C   0  0  0  0  0  0  0  0  0  0  0  0
    5.8962    2.0501   -0.9958 Cl  0  0  0  0  0  0  0  0  0  0  0  0
    3.4533    0.9174   -1.1521 C   0  0  0  0  0  0  0  0  0  0  0  0
    0.0803   -0.0085   -0.5344 N   0  0  0  0  0  0  0  0  0  0  0  0
    0.1570    0.2105    0.9051 C   0  0  0  0  0  0  0  0  0  0  0  0
   -0.5999   -0.8693    1.6735 C   0  0  0  0  0  0  0  0  0  0  0  0
   -1.7484   -1.4924    0.8757 C   0  0  0  0  0  0  0  0  0  0  0  0
   -2.3571   -0.5365   -0.1615 C   0  0  0  0  0  0  0  0  0  0  0  0
   -3.1535    0.5937    0.5197 C   0  0  0  0  0  0  0  0  0  0  0  0
   -4.0311    1.3843   -0.4473 C   0  0  0  0  0  0  0  0  0  0  0  0
   -4.7744    2.3567    0.2766 O   0  0  0  0  0  0  0  0  0  0  0  0
   -1.2587   -0.0349   -1.1221 C   0  0  0  0  0  0  0  0  0  0  0  0
    2.2034   -2.0217    0.0584 H   0  0  0  0  0  0  0  0  0  0  0  0
    4.5255   -2.1927    0.9285 H   0  0  0  0  0  0  0  0  0  0  0  0
    6.1558   -0.3834    0.4644 H   0  0  0  0  0  0  0  0  0  0  0  0
    3.1543    1.7715   -1.7541 H   0  0  0  0  0  0  0  0  0  0  0  0
    1.1850    0.2808    1.2674 H   0  0  0  0  0  0  0  0  0  0  0  0
   -0.2833    1.1958    1.0961 H   0  0  0  0  0  0  0  0  0  0  0  0
    0.0925   -1.6695    1.9628 H   0  0  0  0  0  0  0  0  0  0  0  0
   -0.9773   -0.4410    2.6097 H   0  0  0  0  0  0  0  0  0  0  0  0
   -2.5164   -1.8680    1.5621 H   0  0  0  0  0  0  0  0  0  0  0  0
   -1.3627   -2.3735    0.3448 H   0  0  0  0  0  0  0  0  0  0  0  0
   -3.0799   -1.1112   -0.7569 H   0  0  0  0  0  0  0  0  0  0  0  0
   -2.4951    1.2893    1.0506 H   0  0  0  0  0  0  0  0  0  0  0  0
   -3.8019    0.1642    1.2950 H   0  0  0  0  0  0  0  0  0  0  0  0
   -4.7349    0.7315   -0.9734 H   0  0  0  0  0  0  0  0  0  0  0  0
   -3.4342    1.9165   -1.1919 H   0  0  0  0  0  0  0  0  0  0  0  0
   -5.3745    1.8825    0.8771 H   0  0  0  0  0  0  0  0  0  0  0  0
   -1.2256   -0.7001   -1.9944 H   0  0  0  0  0  0  0  0  0  0  0  0
   -1.4678    0.9683   -1.5062 H   0  0  0  0  0  0  0  0  0  0  0  0
  1  2  2  0
  2  3  1  0
  3  4  2  0
  4  5  1  0
  5  6  2  0
  6  7  1  0
  7  8  1  0
  7  9  2  0
  2 10  1  0
 10 11  1  0
 11 12  1  0
 12 13  1  0
 13 14  1  0
 14 15  1  0
 15 16  1  0
 16 17  1  0
 14 18  1  0
  9  3  1  0
 18 10  1  0
  4 19  1  0
  5 20  1  0
  6 21  1  0
  9 22  1  0
 11 23  1  0
 11 24  1  0
 12 25  1  0
 12 26  1  0
 13 27  1  0
 13 28  1  0
 14 29  1  0
 15 30  1  0
 15 31  1  0
 16 32  1  0
 16 33  1  0
 17 34  1  0
 18 35  1  0
 18 36  1  0
M  END
>  <smiles>
O=C(c1cccc(Cl)c1)N1CCCC(CCO)C1

$$$$
