mol_24e3fcb8d37a
     RDKit          3D

 57 60  0  0  0  0  0  0  0  0999 V2000
    7.6457    0.8309   -1.0682 C   0  0  0  0  0  0  0  0  0  0  0  0
    6.9606    0.2875    0.0993 N   0  0  0  0  0  0  0  0  0  0  0  0
    6.4039   -1.0554   -0.1543 C   0  0  0  0  0  0  0  0  0  0  0  0
    4.8801   -1.0673   -0.4043 C   0  0  0  0  0  0  0  0  0  0  0  0
    4.1083   -0.5497    0.7406 N   0  0  0  0  0  0  0  0  0  0  0  0
    2.7449   -0.1681    0.3284 C   0  0  0  0  0  0  0  0  0  0  0  0
    1.7790    0.0296    1.5193 C   0  0  0  0  0  0  0  0  0  0  0  0
    2.1355   -0.0996    2.6924 O   0  0  0  0  0  0  0  0  0  0  0  0
    0.4603    0.3743    1.2037 N   0  0  0  0  0  0  0  0  0  0  0  0
   -0.4944    0.5888    2.2906 C   0  0  0  0  0  0  0  0  0  0  0  0
   -1.7153   -0.3091    2.1145 C   0  0  0  0  0  0  0  0  0  0  0  0
   -2.3423   -0.0851    0.7227 C   0  0  0  0  0  0  0  0  0  0  0  0
   -3.5477   -0.8766    0.4811 N   0  0  0  0  0  0  0  0  0  0  0  0
   -3.6511   -2.2005    0.8420 C   0  0  0  0  0  0  0  0  0  0  0  0
   -4.9567   -2.5819    0.6859 C   0  0  0  0  0  0  0  0  0  0  0  0
   -5.6726   -1.4705    0.1572 C   0  0  0  0  0  0  0  0  0  0  0  0
   -7.1109   -1.4683   -0.0178 C   0  0  0  0  0  0  0  0  0  0  0  0
   -7.7844   -2.4313   -0.3561 O   0  0  0  0  0  0  0  0  0  0  0  0
   -7.7217   -0.3162    0.3374 O   0  0  0  0  0  0  0  0  0  0  0  0
   -4.7268   -0.4830   -0.1447 C   0  0  0  0  0  0  0  0  0  0  0  0
   -4.9743    0.8001   -1.0780 C   0  0  0  0  0  0  0  0  0  0  0  0
   -6.1580    1.0288   -1.8553 C   0  0  0  0  0  0  0  0  0  0  0  0
   -6.1193    2.1955   -2.5878 C   0  0  0  0  0  0  0  0  0  0  0  0
   -4.6443    3.0197   -2.3848 S   0  0  0  0  0  0  0  0  0  0  0  0
   -4.0611    1.8038   -1.3247 C   0  0  0  0  0  0  0  0  0  0  0  0
   -1.2941   -0.3121   -0.3761 C   0  0  0  0  0  0  0  0  0  0  0  0
   -0.0703    0.5686   -0.1443 C   0  0  0  0  0  0  0  0  0  0  0  0
    4.8313    0.5373    1.4364 C   0  0  0  0  0  0  0  0  0  0  0  0
    5.9261    1.2214    0.5849 C   0  0  0  0  0  0  0  0  0  0  0  0
    8.0725    1.8144   -0.8417 H   0  0  0  0  0  0  0  0  0  0  0  0
    8.4824    0.1855   -1.3577 H   0  0  0  0  0  0  0  0  0  0  0  0
    6.9760    0.9344   -1.9295 H   0  0  0  0  0  0  0  0  0  0  0  0
    6.9160   -1.5496   -0.9894 H   0  0  0  0  0  0  0  0  0  0  0  0
    6.6166   -1.6738    0.7277 H   0  0  0  0  0  0  0  0  0  0  0  0
    4.5617   -2.0967   -0.6062 H   0  0  0  0  0  0  0  0  0  0  0  0
    4.6739   -0.4822   -1.3111 H   0  0  0  0  0  0  0  0  0  0  0  0
    2.3219   -0.9795   -0.2769 H   0  0  0  0  0  0  0  0  0  0  0  0
    2.7703    0.7494   -0.2711 H   0  0  0  0  0  0  0  0  0  0  0  0
   -0.0427    0.4015    3.2693 H   0  0  0  0  0  0  0  0  0  0  0  0
   -0.7866    1.6455    2.2660 H   0  0  0  0  0  0  0  0  0  0  0  0
   -1.4004   -1.3521    2.2380 H   0  0  0  0  0  0  0  0  0  0  0  0
   -2.4497   -0.0983    2.9011 H   0  0  0  0  0  0  0  0  0  0  0  0
   -2.6660    0.9578    0.7334 H   0  0  0  0  0  0  0  0  0  0  0  0
   -2.8070   -2.7550    1.2310 H   0  0  0  0  0  0  0  0  0  0  0  0
   -5.3733   -3.5441    0.9588 H   0  0  0  0  0  0  0  0  0  0  0  0
   -8.6710   -0.5280    0.2342 H   0  0  0  0  0  0  0  0  0  0  0  0
   -7.0125    0.3710   -1.9112 H   0  0  0  0  0  0  0  0  0  0  0  0
   -6.8844    2.5908   -3.2419 H   0  0  0  0  0  0  0  0  0  0  0  0
   -3.0611    1.9445   -0.9589 H   0  0  0  0  0  0  0  0  0  0  0  0
   -0.9853   -1.3658   -0.3817 H   0  0  0  0  0  0  0  0  0  0  0  0
   -1.7136   -0.1054   -1.3670 H   0  0  0  0  0  0  0  0  0  0  0  0
    0.6741    0.3602   -0.9141 H   0  0  0  0  0  0  0  0  0  0  0  0
   -0.3402    1.6275   -0.2366 H   0  0  0  0  0  0  0  0  0  0  0  0
    4.1502    1.3100    1.8119 H   0  0  0  0  0  0  0  0  0  0  0  0
    5.3052    0.0999    2.3247 H   0  0  0  0  0  0  0  0  0  0  0  0
    6.4108    2.0001    1.1853 H   0  0  0  0  0  0  0  0  0  0  0  0
    5.4313    1.7266   -0.2563 H   0  0  0  0  0  0  0  0  0  0  0  0
  1  2  1  0
  2  3  1  0
  3  4  1  0
  4  5  1  0
  5  6  1  0
  6  7  1  0
  7  8  2  0
  7  9  1  0
  9 10  1  0
 10 11  1  0
 11 12  1  0
 12 13  1  0
 13 14  1  0
 14 15  2  0
 15 16  1  0
 16 17  1  0
 17 18  2  0
 17 19  1  0
 16 20  2  0
 20 21  1  0
 21 22  1  0
 22 23  2  0
 23 24  1  0
 24 25  1  0
 12 26  1  0
 26 27  1  0
  5 28  1  0
 28 29  1  0
 29  2  1  0
 27  9  1  0
 20 13  1  0
 25 21  2  0
  1 30  1  0
  1 31  1  0
  1 32  1  0
  3 33  1  0
  3 34  1  0
  4 35  1  0
  4 36  1  0
  6 37  1  0
  6 38  1  0
 10 39  1  0
 10 40  1  0
 11 41  1  0
 11 42  1  0
 12 43  1  0
 14 44  1  0
 15 45  1  0
 19 46  1  0
 22 47  1  0
 23 48  1  0
 25 49  1  0
 26 50  1  0
 26 51  1  0
 27 52  1  0
 27 53  1  0
 28 54  1  0
 28 55  1  0
 29 56  1  0
 29 57  1  0
M  END
>  <smiles>
CN1CCN(CC(=O)N2CCC(n3ccc(C(=O)O)c3-c3ccsc3)CC2)CC1

$$$$
