
     RDKit          3D

 31 34  0  0  0  0  0  0  0  0999 V2000
   16.6701   13.0267   10.3350 C   0  0  0  0  0  0  0  0  0  0  0  0
   17.8894   13.9112   10.3110 C   0  0  0  0  0  0  0  0  0  0  0  0
   18.8810   13.6743    9.3464 C   0  0  0  0  0  0  0  0  0  0  0  0
   20.0042   14.4888    9.3189 C   0  0  0  0  0  0  0  0  0  0  0  0
   20.1679   15.5365   10.2209 C   0  0  0  0  0  0  0  0  0  0  0  0
   19.2033   15.7860   11.1820 C   0  0  0  0  0  0  0  0  0  0  0  0
   18.0484   14.9757   11.2392 C   0  0  0  0  0  0  0  0  0  0  0  0
   17.0099   15.2521   12.3067 C   0  0  0  0  0  0  0  0  0  0  0  0
   16.8542   14.2066   13.1650 F   0  0  0  0  0  0  0  0  0  0  0  0
   15.7730   15.4947   11.7872 F   0  0  0  0  0  0  0  0  0  0  0  0
   17.2953   16.3299   13.0903 F   0  0  0  0  0  0  0  0  0  0  0  0
   21.3873   16.2077    9.9769 N   0  0  0  0  0  0  0  0  0  0  0  0
   21.8698   17.2871   10.7143 C   0  0  0  0  0  0  0  0  0  0  0  0
   21.2884   17.7512   11.6927 O   0  0  0  0  0  0  0  0  0  0  0  0
   23.0783   17.7847   10.2561 N   0  0  0  0  0  0  0  0  0  0  0  0
   23.8570   18.8079   10.8432 C   0  0  0  0  0  0  0  0  0  0  0  0
   25.0821   19.1115   10.2435 C   0  0  0  0  0  0  0  0  0  0  0  0
   25.9142   20.0809   10.8052 C   0  0  0  0  0  0  0  0  0  0  0  0
   25.4936   20.7228   11.9560 C   0  0  0  0  0  0  0  0  0  0  0  0
   26.3582   21.6543   12.4921 O   0  0  0  0  0  0  0  0  0  0  0  0
   25.9695   22.0686   13.8009 C   0  0  0  0  0  0  0  0  0  0  0  0
   27.1106   22.8675   14.3322 C   0  0  0  0  0  0  0  0  0  0  0  0
   28.0837   22.5430   15.2587 C   0  0  0  0  0  0  0  0  0  0  0  0
   28.9503   23.5900   15.4552 N   0  0  0  0  0  0  0  0  0  0  0  0
   28.5224   24.5474   14.6623 C   0  0  0  0  0  0  0  0  0  0  0  0
   27.4113   24.1592   13.9621 N   0  0  0  0  0  0  0  0  0  0  0  0
   26.6939   24.9750   13.0093 C   0  0  0  0  0  0  0  0  0  0  0  0
   24.3073   20.4858   12.5493 N   0  0  0  0  0  0  0  0  0  0  0  0
   23.5184   19.5312   11.9847 C   0  0  0  0  0  0  0  0  0  0  0  0
   22.0078   15.5930    8.7898 C   0  0  0  0  0  0  0  0  0  0  0  0
   21.1874   14.3526    8.4191 C   0  0  0  0  0  0  0  0  0  0  0  0
  1  2  1  0
  2  3  2  0
  3  4  1  0
  4  5  2  0
  5  6  1  0
  6  7  2  0
  7  8  1  0
  8  9  1  0
  8 10  1  0
  8 11  1  0
  5 12  1  0
 12 13  1  0
 13 14  2  0
 13 15  1  0
 15 16  1  0
 16 17  1  0
 17 18  2  0
 18 19  1  0
 19 20  1  0
 20 21  1  0
 21 22  1  0
 22 23  2  0
 23 24  1  0
 24 25  2  0
 25 26  1  0
 26 27  1  0
 19 28  2  0
 28 29  1  0
 12 30  1  0
 30 31  1  0
  7  2  1  0
 29 16  2  0
 31  4  1  0
 26 22  1  0
M  END
$$$$
