mol_9fd8543df8cc
     RDKit          3D

 41 42  0  0  0  0  0  0  0  0999 V2000
    5.2784    1.5882   -0.5190 C   0  0  0  0  0  0  0  0  0  0  0  0
    4.4619    0.9657    0.6024 C   0  0  0  0  0  0  0  0  0  0  0  0
    3.1436    0.3920    0.0834 C   0  0  0  0  0  0  0  0  0  0  0  0
    2.3281   -0.2354    1.2173 C   0  0  0  0  0  0  0  0  0  0  0  0
    1.0132   -0.8062    0.7215 C   0  0  0  0  0  0  0  0  0  0  0  0
    0.9932   -2.1700    0.3825 C   0  0  0  0  0  0  0  0  0  0  0  0
   -0.1557   -2.7771   -0.1101 C   0  0  0  0  0  0  0  0  0  0  0  0
   -0.0151   -4.1026   -0.4147 O   0  0  0  0  0  0  0  0  0  0  0  0
   -1.1252   -4.7509   -1.0217 C   0  0  0  0  0  0  0  0  0  0  0  0
   -1.3147   -2.0177   -0.2490 C   0  0  0  0  0  0  0  0  0  0  0  0
   -1.3526   -0.6439    0.0969 C   0  0  0  0  0  0  0  0  0  0  0  0
   -2.5272    0.1440   -0.0244 C   0  0  0  0  0  0  0  0  0  0  0  0
   -3.7297   -0.4114   -0.3937 O   0  0  0  0  0  0  0  0  0  0  0  0
   -2.5423    1.5194    0.2400 C   0  0  0  0  0  0  0  0  0  0  0  0
   -3.7964    2.3397    0.0571 C   0  0  0  0  0  0  0  0  0  0  0  0
   -4.1306    2.6114   -1.3886 C   0  0  0  0  0  0  0  0  0  0  0  0
   -3.3792    2.6163   -2.3498 O   0  0  0  0  0  0  0  0  0  0  0  0
   -5.4286    2.9524   -1.5529 O   0  0  0  0  0  0  0  0  0  0  0  0
   -1.3631    2.1229    0.6693 C   0  0  0  0  0  0  0  0  0  0  0  0
   -0.2037    1.3628    0.8388 C   0  0  0  0  0  0  0  0  0  0  0  0
   -0.1633   -0.0228    0.5624 C   0  0  0  0  0  0  0  0  0  0  0  0
    5.5229    0.8455   -1.2851 H   0  0  0  0  0  0  0  0  0  0  0  0
    6.2165    1.9921   -0.1257 H   0  0  0  0  0  0  0  0  0  0  0  0
    4.7297    2.4066   -0.9960 H   0  0  0  0  0  0  0  0  0  0  0  0
    4.2617    1.7263    1.3660 H   0  0  0  0  0  0  0  0  0  0  0  0
    5.0511    0.1737    1.0790 H   0  0  0  0  0  0  0  0  0  0  0  0
    2.5668    1.1868   -0.4048 H   0  0  0  0  0  0  0  0  0  0  0  0
    3.3497   -0.3630   -0.6860 H   0  0  0  0  0  0  0  0  0  0  0  0
    2.1484    0.4880    2.0210 H   0  0  0  0  0  0  0  0  0  0  0  0
    2.9149   -1.0351    1.6890 H   0  0  0  0  0  0  0  0  0  0  0  0
    1.8954   -2.7701    0.4881 H   0  0  0  0  0  0  0  0  0  0  0  0
   -1.3905   -4.2756   -1.9720 H   0  0  0  0  0  0  0  0  0  0  0  0
   -0.8333   -5.7835   -1.2361 H   0  0  0  0  0  0  0  0  0  0  0  0
   -1.9826   -4.7819   -0.3414 H   0  0  0  0  0  0  0  0  0  0  0  0
   -2.2041   -2.4807   -0.6596 H   0  0  0  0  0  0  0  0  0  0  0  0
   -3.7610   -1.3120   -0.0330 H   0  0  0  0  0  0  0  0  0  0  0  0
   -4.6361    1.8180    0.5318 H   0  0  0  0  0  0  0  0  0  0  0  0
   -3.6964    3.3077    0.5622 H   0  0  0  0  0  0  0  0  0  0  0  0
   -5.4997    3.1018   -2.5191 H   0  0  0  0  0  0  0  0  0  0  0  0
   -1.3298    3.1900    0.8775 H   0  0  0  0  0  0  0  0  0  0  0  0
    0.6856    1.8884    1.1783 H   0  0  0  0  0  0  0  0  0  0  0  0
  1  2  1  0
  2  3  1  0
  3  4  1  0
  4  5  1  0
  5  6  2  0
  6  7  1  0
  7  8  1  0
  8  9  1  0
  7 10  2  0
 10 11  1  0
 11 12  2  0
 12 13  1  0
 12 14  1  0
 14 15  1  0
 15 16  1  0
 16 17  2  0
 16 18  1  0
 14 19  2  0
 19 20  1  0
 20 21  2  0
 21  5  1  0
 21 11  1  0
  1 22  1  0
  1 23  1  0
  1 24  1  0
  2 25  1  0
  2 26  1  0
  3 27  1  0
  3 28  1  0
  4 29  1  0
  4 30  1  0
  6 31  1  0
  9 32  1  0
  9 33  1  0
  9 34  1  0
 10 35  1  0
 13 36  1  0
 15 37  1  0
 15 38  1  0
 18 39  1  0
 19 40  1  0
 20 41  1  0
M  END
>  <smiles>
CCCCc1cc(OC)cc2c(O)c(CC(=O)O)ccc12

$$$$
