mol_ad71d76915cf
     RDKit          3D

 49 51  0  0  0  0  0  0  0  0999 V2000
    4.6545   -2.5366   -1.9815 C   0  0  0  0  0  0  0  0  0  0  0  0
    4.6731   -2.2204   -0.4934 C   0  0  0  0  0  0  0  0  0  0  0  0
    4.2785   -0.7871   -0.2158 C   0  0  0  0  0  0  0  0  0  0  0  0
    5.2859    0.1908   -0.1000 C   0  0  0  0  0  0  0  0  0  0  0  0
    4.9726    1.5381    0.1390 C   0  0  0  0  0  0  0  0  0  0  0  0
    6.0621    2.5724    0.2868 C   0  0  0  0  0  0  0  0  0  0  0  0
    5.7118    3.7881   -0.2166 F   0  0  0  0  0  0  0  0  0  0  0  0
    7.2175    2.2277   -0.3471 F   0  0  0  0  0  0  0  0  0  0  0  0
    6.3979    2.7861    1.5880 F   0  0  0  0  0  0  0  0  0  0  0  0
    3.6268    1.9001    0.2729 C   0  0  0  0  0  0  0  0  0  0  0  0
    2.6226    0.9308    0.1503 C   0  0  0  0  0  0  0  0  0  0  0  0
    1.2008    1.3082    0.2796 C   0  0  0  0  0  0  0  0  0  0  0  0
    0.8942    2.4734    0.5192 O   0  0  0  0  0  0  0  0  0  0  0  0
    0.2823    0.2823    0.1203 N   0  0  0  0  0  0  0  0  0  0  0  0
   -1.1402    0.5822    0.2314 C   0  0  0  0  0  0  0  0  0  0  0  0
   -1.6320    0.4215    1.6678 C   0  0  0  0  0  0  0  0  0  0  0  0
   -3.0598    0.9320    1.8778 C   0  0  0  0  0  0  0  0  0  0  0  0
   -4.0736    0.2746    1.0511 N   0  0  0  0  0  0  0  0  0  0  0  0
   -4.5749    1.0026   -0.1127 C   0  0  0  0  0  0  0  0  0  0  0  0
   -5.8774    0.4561   -0.6703 C   0  0  0  0  0  0  0  0  0  0  0  0
   -5.7628   -1.0476   -0.8222 C   0  0  0  0  0  0  0  0  0  0  0  0
   -5.5398   -1.6700    0.5423 C   0  0  0  0  0  0  0  0  0  0  0  0
   -4.4194   -1.0372    1.3442 C   0  0  0  0  0  0  0  0  0  0  0  0
   -3.8937   -1.6682    2.2620 O   0  0  0  0  0  0  0  0  0  0  0  0
    0.6935   -1.0075   -0.1094 C   0  0  0  0  0  0  0  0  0  0  0  0
    1.9216   -1.3832   -0.2226 N   0  0  0  0  0  0  0  0  0  0  0  0
    2.9277   -0.4111   -0.0965 C   0  0  0  0  0  0  0  0  0  0  0  0
    5.3450   -1.8890   -2.5325 H   0  0  0  0  0  0  0  0  0  0  0  0
    3.6551   -2.4005   -2.4078 H   0  0  0  0  0  0  0  0  0  0  0  0
    4.9558   -3.5751   -2.1509 H   0  0  0  0  0  0  0  0  0  0  0  0
    4.0111   -2.9073    0.0469 H   0  0  0  0  0  0  0  0  0  0  0  0
    5.6779   -2.4086   -0.0947 H   0  0  0  0  0  0  0  0  0  0  0  0
    6.3313   -0.1049   -0.1999 H   0  0  0  0  0  0  0  0  0  0  0  0
    3.3563    2.9375    0.4689 H   0  0  0  0  0  0  0  0  0  0  0  0
   -1.3214    1.6051   -0.1178 H   0  0  0  0  0  0  0  0  0  0  0  0
   -1.6875   -0.1010   -0.4279 H   0  0  0  0  0  0  0  0  0  0  0  0
   -0.9704    0.9731    2.3478 H   0  0  0  0  0  0  0  0  0  0  0  0
   -1.5531   -0.6323    1.9594 H   0  0  0  0  0  0  0  0  0  0  0  0
   -3.1041    2.0140    1.7089 H   0  0  0  0  0  0  0  0  0  0  0  0
   -3.3327    0.7653    2.9273 H   0  0  0  0  0  0  0  0  0  0  0  0
   -3.7960    0.9655   -0.8818 H   0  0  0  0  0  0  0  0  0  0  0  0
   -4.7200    2.0524    0.1655 H   0  0  0  0  0  0  0  0  0  0  0  0
   -6.7065    0.7005    0.0050 H   0  0  0  0  0  0  0  0  0  0  0  0
   -6.0958    0.9242   -1.6362 H   0  0  0  0  0  0  0  0  0  0  0  0
   -4.9297   -1.2953   -1.4912 H   0  0  0  0  0  0  0  0  0  0  0  0
   -6.6752   -1.4537   -1.2722 H   0  0  0  0  0  0  0  0  0  0  0  0
   -6.4524   -1.5881    1.1448 H   0  0  0  0  0  0  0  0  0  0  0  0
   -5.3162   -2.7360    0.4218 H   0  0  0  0  0  0  0  0  0  0  0  0
   -0.1216   -1.7440   -0.1972 H   0  0  0  0  0  0  0  0  0  0  0  0
  1  2  1  0
  2  3  1  0
  3  4  1  0
  4  5  2  0
  5  6  1  0
  6  7  1  0
  6  8  1  0
  6  9  1  0
  5 10  1  0
 10 11  2  0
 11 12  1  0
 12 13  2  0
 12 14  1  0
 14 15  1  0
 15 16  1  0
 16 17  1  0
 17 18  1  0
 18 19  1  0
 19 20  1  0
 20 21  1  0
 21 22  1  0
 22 23  1  0
 23 24  2  0
 14 25  1  0
 25 26  2  0
 26 27  1  0
 27  3  2  0
 27 11  1  0
 23 18  1  0
  1 28  1  0
  1 29  1  0
  1 30  1  0
  2 31  1  0
  2 32  1  0
  4 33  1  0
 10 34  1  0
 15 35  1  0
 15 36  1  0
 16 37  1  0
 16 38  1  0
 17 39  1  0
 17 40  1  0
 19 41  1  0
 19 42  1  0
 20 43  1  0
 20 44  1  0
 21 45  1  0
 21 46  1  0
 22 47  1  0
 22 48  1  0
 25 49  1  0
M  END
>  <smiles>
CCc1cc(C(F)(F)F)cc2c(=O)n(CCCN3CCCCC3=O)cnc12

$$$$
