mol_a9a42928ea5c
     RDKit          3D

 67 70  0  0  0  0  0  0  0  0999 V2000
    1.5233   -2.1794    0.2130 C   0  0  0  0  0  0  0  0  0  0  0  0
    1.0694   -1.2159   -0.8502 C   0  0  0  0  0  0  0  0  0  0  0  0
   -0.2533   -1.3005   -1.3225 C   0  0  0  0  0  0  0  0  0  0  0  0
   -0.7545   -0.4208   -2.3003 C   0  0  0  0  0  0  0  0  0  0  0  0
   -2.2132   -0.5239   -2.7964 C   0  0  0  0  0  0  0  0  0  0  0  0
   -2.2505   -1.5117   -3.9771 C   0  0  0  0  0  0  0  0  0  0  0  0
   -3.1600   -1.0405   -1.6925 C   0  0  0  0  0  0  0  0  0  0  0  0
   -3.4157   -2.2373   -1.5481 O   0  0  0  0  0  0  0  0  0  0  0  0
   -3.6737   -0.0580   -0.8525 N   0  0  0  0  0  0  0  0  0  0  0  0
   -4.5192   -0.4233    0.2932 C   0  0  0  0  0  0  0  0  0  0  0  0
   -3.9114    0.0079    1.6340 C   0  0  0  0  0  0  0  0  0  0  0  0
   -4.7246   -0.5178    2.8196 C   0  0  0  0  0  0  0  0  0  0  0  0
   -6.2199   -0.6563    2.5260 C   0  0  0  0  0  0  0  0  0  0  0  0
   -6.6848    0.3181    1.4523 C   0  0  0  0  0  0  0  0  0  0  0  0
   -5.9625    0.0890    0.1224 C   0  0  0  0  0  0  0  0  0  0  0  0
   -3.2461    1.3141   -1.0212 C   0  0  0  0  0  0  0  0  0  0  0  0
   -3.2744    1.7139   -2.4235 N   0  0  0  0  0  0  0  0  0  0  0  0
   -2.7754    0.8263   -3.2061 C   0  0  0  0  0  0  0  0  0  0  0  0
   -2.7238    1.1471   -4.5056 O   0  0  0  0  0  0  0  0  0  0  0  0
    0.1301    0.5260   -2.8372 C   0  0  0  0  0  0  0  0  0  0  0  0
    1.4478    0.6176   -2.3837 C   0  0  0  0  0  0  0  0  0  0  0  0
    1.9342   -0.2466   -1.3920 C   0  0  0  0  0  0  0  0  0  0  0  0
    3.3698   -0.0952   -0.9317 C   0  0  0  0  0  0  0  0  0  0  0  0
    3.5360    0.7143    0.3516 C   0  0  0  0  0  0  0  0  0  0  0  0
    2.6455    1.4457    0.7882 O   0  0  0  0  0  0  0  0  0  0  0  0
    4.7580    0.6028    1.0156 N   0  0  0  0  0  0  0  0  0  0  0  0
    4.8846    1.2631    2.3153 C   0  0  0  0  0  0  0  0  0  0  0  0
    6.0749    0.7533    3.1155 C   0  0  0  0  0  0  0  0  0  0  0  0
    7.3864    0.9005    2.3428 C   0  0  0  0  0  0  0  0  0  0  0  0
    7.2357    0.6115    0.8453 C   0  0  0  0  0  0  0  0  0  0  0  0
    7.2770    1.8486    0.1242 O   0  0  0  0  0  0  0  0  0  0  0  0
    5.9320   -0.1219    0.5042 C   0  0  0  0  0  0  0  0  0  0  0  0
    0.6918   -2.7842    0.5906 H   0  0  0  0  0  0  0  0  0  0  0  0
    2.2745   -2.8639   -0.1932 H   0  0  0  0  0  0  0  0  0  0  0  0
    1.9427   -1.6406    1.0681 H   0  0  0  0  0  0  0  0  0  0  0  0
   -0.8986   -2.0758   -0.9090 H   0  0  0  0  0  0  0  0  0  0  0  0
   -1.9084   -2.5109   -3.6816 H   0  0  0  0  0  0  0  0  0  0  0  0
   -3.2684   -1.6175   -4.3712 H   0  0  0  0  0  0  0  0  0  0  0  0
   -1.6092   -1.1830   -4.8036 H   0  0  0  0  0  0  0  0  0  0  0  0
   -4.5821   -1.5188    0.3252 H   0  0  0  0  0  0  0  0  0  0  0  0
   -3.8703    1.1028    1.6936 H   0  0  0  0  0  0  0  0  0  0  0  0
   -2.8747   -0.3404    1.7184 H   0  0  0  0  0  0  0  0  0  0  0  0
   -4.3362   -1.4950    3.1315 H   0  0  0  0  0  0  0  0  0  0  0  0
   -4.5751    0.1551    3.6728 H   0  0  0  0  0  0  0  0  0  0  0  0
   -6.7906   -0.5048    3.4493 H   0  0  0  0  0  0  0  0  0  0  0  0
   -6.4309   -1.6812    2.1951 H   0  0  0  0  0  0  0  0  0  0  0  0
   -7.7665    0.2284    1.3017 H   0  0  0  0  0  0  0  0  0  0  0  0
   -6.5005    1.3446    1.7937 H   0  0  0  0  0  0  0  0  0  0  0  0
   -5.9998    1.0194   -0.4562 H   0  0  0  0  0  0  0  0  0  0  0  0
   -6.5193   -0.6457   -0.4740 H   0  0  0  0  0  0  0  0  0  0  0  0
   -3.9209    1.9780   -0.4727 H   0  0  0  0  0  0  0  0  0  0  0  0
   -2.2440    1.4369   -0.5942 H   0  0  0  0  0  0  0  0  0  0  0  0
   -3.1201    2.0308   -4.5992 H   0  0  0  0  0  0  0  0  0  0  0  0
   -0.1869    1.2132   -3.6188 H   0  0  0  0  0  0  0  0  0  0  0  0
    2.0955    1.3797   -2.8130 H   0  0  0  0  0  0  0  0  0  0  0  0
    3.9563    0.3999   -1.7158 H   0  0  0  0  0  0  0  0  0  0  0  0
    3.8013   -1.0938   -0.8027 H   0  0  0  0  0  0  0  0  0  0  0  0
    3.9603    1.1136    2.8853 H   0  0  0  0  0  0  0  0  0  0  0  0
    4.9801    2.3396    2.1290 H   0  0  0  0  0  0  0  0  0  0  0  0
    5.9191   -0.3063    3.3560 H   0  0  0  0  0  0  0  0  0  0  0  0
    6.1459    1.2844    4.0713 H   0  0  0  0  0  0  0  0  0  0  0  0
    8.1130    0.2038    2.7785 H   0  0  0  0  0  0  0  0  0  0  0  0
    7.7872    1.9100    2.4956 H   0  0  0  0  0  0  0  0  0  0  0  0
    8.0932    0.0258    0.4976 H   0  0  0  0  0  0  0  0  0  0  0  0
    6.4239    2.2976    0.2699 H   0  0  0  0  0  0  0  0  0  0  0  0
    5.8577   -0.2303   -0.5808 H   0  0  0  0  0  0  0  0  0  0  0  0
    5.9185   -1.1220    0.9516 H   0  0  0  0  0  0  0  0  0  0  0  0
  1  2  1  0
  2  3  1  0
  3  4  2  0
  4  5  1  0
  5  6  1  0
  5  7  1  0
  7  8  2  0
  7  9  1  0
  9 10  1  0
 10 11  1  0
 11 12  1  0
 12 13  1  0
 13 14  1  0
 14 15  1  0
  9 16  1  0
 16 17  1  0
 17 18  2  0
 18 19  1  0
  4 20  1  0
 20 21  2  0
 21 22  1  0
 22 23  1  0
 23 24  1  0
 24 25  2  0
 24 26  1  0
 26 27  1  0
 27 28  1  0
 28 29  1  0
 29 30  1  0
 30 31  1  0
 30 32  1  0
 22  2  2  0
 32 26  1  0
 18  5  1  0
 15 10  1  0
  1 33  1  0
  1 34  1  0
  1 35  1  0
  3 36  1  0
  6 37  1  0
  6 38  1  0
  6 39  1  0
 10 40  1  0
 11 41  1  0
 11 42  1  0
 12 43  1  0
 12 44  1  0
 13 45  1  0
 13 46  1  0
 14 47  1  0
 14 48  1  0
 15 49  1  0
 15 50  1  0
 16 51  1  0
 16 52  1  0
 19 53  1  0
 20 54  1  0
 21 55  1  0
 23 56  1  0
 23 57  1  0
 27 58  1  0
 27 59  1  0
 28 60  1  0
 28 61  1  0
 29 62  1  0
 29 63  1  0
 30 64  1  0
 31 65  1  0
 32 66  1  0
 32 67  1  0
M  END
>  <smiles>
Cc1cc(C2(C)C(=O)N(C3CCCCC3)CN=C2O)ccc1CC(=O)N1CCCC(O)C1

$$$$
