mol_7dbeb5bac1c9
     RDKit          3D

 50 54  0  0  0  0  0  0  0  0999 V2000
    3.4315   -0.2637    1.6601 C   0  0  0  0  0  0  0  0  0  0  0  0
    3.5499   -0.2494    0.1314 C   0  0  0  0  0  0  0  0  0  0  0  0
    4.0515   -1.5973   -0.4086 C   0  0  0  0  0  0  0  0  0  0  0  0
    4.5585    0.8665   -0.2502 C   0  0  0  0  0  0  0  0  0  0  0  0
    4.1244    1.2749   -1.6401 C   0  0  0  0  0  0  0  0  0  0  0  0
    2.6066    1.2433   -1.5272 C   0  0  0  0  0  0  0  0  0  0  0  0
    2.0633    0.9211   -2.7846 O   0  0  0  0  0  0  0  0  0  0  0  0
    2.3069    0.1763   -0.5698 N   0  0  0  0  0  0  0  0  0  0  0  0
    1.0073   -0.1775   -0.2455 C   0  0  0  0  0  0  0  0  0  0  0  0
    0.6893   -1.3849    0.3875 C   0  0  0  0  0  0  0  0  0  0  0  0
   -0.6279   -1.7468    0.7144 C   0  0  0  0  0  0  0  0  0  0  0  0
   -1.6760   -0.8747    0.3983 C   0  0  0  0  0  0  0  0  0  0  0  0
   -1.4305    0.3355   -0.2708 C   0  0  0  0  0  0  0  0  0  0  0  0
   -0.0881    0.6548   -0.5637 C   0  0  0  0  0  0  0  0  0  0  0  0
   -2.5737    1.2211   -0.6086 C   0  0  0  0  0  0  0  0  0  0  0  0
   -2.5007    2.2333   -1.5810 C   0  0  0  0  0  0  0  0  0  0  0  0
   -3.5970    3.0563   -1.8583 C   0  0  0  0  0  0  0  0  0  0  0  0
   -4.7934    2.8838   -1.1706 C   0  0  0  0  0  0  0  0  0  0  0  0
   -4.9022    1.8791   -0.2140 C   0  0  0  0  0  0  0  0  0  0  0  0
   -3.8107    1.0395    0.0560 C   0  0  0  0  0  0  0  0  0  0  0  0
   -3.9382   -0.0446    1.1031 C   0  0  0  0  0  0  0  0  0  0  0  0
   -3.0995   -1.2721    0.7300 C   0  0  0  0  0  0  0  0  0  0  0  0
   -3.1080   -2.3080    1.8549 C   0  0  0  0  0  0  0  0  0  0  0  0
   -2.2759   -3.4113    1.4886 O   0  0  0  0  0  0  0  0  0  0  0  0
   -0.8936   -3.0369    1.4539 C   0  0  0  0  0  0  0  0  0  0  0  0
    4.4220   -0.3405    2.1239 H   0  0  0  0  0  0  0  0  0  0  0  0
    2.8480   -1.1095    2.0323 H   0  0  0  0  0  0  0  0  0  0  0  0
    2.9583    0.6524    2.0319 H   0  0  0  0  0  0  0  0  0  0  0  0
    3.4091   -2.4303   -0.1132 H   0  0  0  0  0  0  0  0  0  0  0  0
    4.0974   -1.6050   -1.5030 H   0  0  0  0  0  0  0  0  0  0  0  0
    5.0556   -1.8194   -0.0296 H   0  0  0  0  0  0  0  0  0  0  0  0
    4.4626    1.7291    0.4225 H   0  0  0  0  0  0  0  0  0  0  0  0
    5.6017    0.5360   -0.2197 H   0  0  0  0  0  0  0  0  0  0  0  0
    4.4935    2.2661   -1.9217 H   0  0  0  0  0  0  0  0  0  0  0  0
    4.4882    0.5683   -2.3956 H   0  0  0  0  0  0  0  0  0  0  0  0
    2.2340    2.2153   -1.1841 H   0  0  0  0  0  0  0  0  0  0  0  0
    1.7529    0.0081   -2.6536 H   0  0  0  0  0  0  0  0  0  0  0  0
    1.4694   -2.0953    0.6339 H   0  0  0  0  0  0  0  0  0  0  0  0
    0.1087    1.6102   -1.0400 H   0  0  0  0  0  0  0  0  0  0  0  0
   -1.5919    2.3923   -2.1556 H   0  0  0  0  0  0  0  0  0  0  0  0
   -3.5122    3.8314   -2.6156 H   0  0  0  0  0  0  0  0  0  0  0  0
   -5.6424    3.5276   -1.3843 H   0  0  0  0  0  0  0  0  0  0  0  0
   -5.8423    1.7483    0.3164 H   0  0  0  0  0  0  0  0  0  0  0  0
   -3.6142    0.3743    2.0648 H   0  0  0  0  0  0  0  0  0  0  0  0
   -4.9873   -0.3462    1.2111 H   0  0  0  0  0  0  0  0  0  0  0  0
   -3.5070   -1.7388   -0.1786 H   0  0  0  0  0  0  0  0  0  0  0  0
   -4.1224   -2.6931    2.0038 H   0  0  0  0  0  0  0  0  0  0  0  0
   -2.7679   -1.8930    2.8125 H   0  0  0  0  0  0  0  0  0  0  0  0
   -0.5344   -2.9475    2.4859 H   0  0  0  0  0  0  0  0  0  0  0  0
   -0.3533   -3.8589    0.9727 H   0  0  0  0  0  0  0  0  0  0  0  0
  1  2  1  0
  2  3  1  0
  2  4  1  0
  4  5  1  0
  5  6  1  0
  6  7  1  0
  6  8  1  0
  8  9  1  0
  9 10  2  0
 10 11  1  0
 11 12  2  0
 12 13  1  0
 13 14  2  0
 13 15  1  0
 15 16  2  0
 16 17  1  0
 17 18  2  0
 18 19  1  0
 19 20  2  0
 20 21  1  0
 21 22  1  0
 22 23  1  0
 23 24  1  0
 24 25  1  0
  8  2  1  0
 14  9  1  0
 20 15  1  0
 25 11  1  0
 22 12  1  0
  1 26  1  0
  1 27  1  0
  1 28  1  0
  3 29  1  0
  3 30  1  0
  3 31  1  0
  4 32  1  0
  4 33  1  0
  5 34  1  0
  5 35  1  0
  6 36  1  0
  7 37  1  0
 10 38  1  0
 14 39  1  0
 16 40  1  0
 17 41  1  0
 18 42  1  0
 19 43  1  0
 21 44  1  0
 21 45  1  0
 22 46  1  0
 23 47  1  0
 23 48  1  0
 25 49  1  0
 25 50  1  0
M  END
>  <smiles>
CC1(C)CCC(O)N1c1cc2c3c(c1)-c1ccccc1CC3COC2

$$$$
