mol_f0e261e11ca1
     RDKit          3D

 44 46  0  0  0  0  0  0  0  0999 V2000
    5.6408    0.5703   -0.5775 C   0  0  0  0  0  0  0  0  0  0  0  0
    4.7866    0.0804    0.4510 O   0  0  0  0  0  0  0  0  0  0  0  0
    3.4402    0.2133    0.2227 C   0  0  0  0  0  0  0  0  0  0  0  0
    2.6801   -0.8503    0.7225 C   0  0  0  0  0  0  0  0  0  0  0  0
    1.2740   -0.9110    0.5991 C   0  0  0  0  0  0  0  0  0  0  0  0
    0.5155   -1.9970    1.1161 C   0  0  0  0  0  0  0  0  0  0  0  0
    1.1910   -3.1522    1.8296 C   0  0  0  0  0  0  0  0  0  0  0  0
    0.2714   -4.1566    2.2487 O   0  0  0  0  0  0  0  0  0  0  0  0
   -0.8799   -1.9865    0.9783 C   0  0  0  0  0  0  0  0  0  0  0  0
   -1.5477   -0.9457    0.3257 C   0  0  0  0  0  0  0  0  0  0  0  0
   -0.8004    0.1118   -0.2295 C   0  0  0  0  0  0  0  0  0  0  0  0
    0.6159    0.1581   -0.0633 C   0  0  0  0  0  0  0  0  0  0  0  0
    1.4053    1.2452   -0.5240 C   0  0  0  0  0  0  0  0  0  0  0  0
    2.7986    1.2961   -0.3773 C   0  0  0  0  0  0  0  0  0  0  0  0
    3.5699    2.3539   -0.7771 O   0  0  0  0  0  0  0  0  0  0  0  0
    2.9117    3.5530   -1.1638 C   0  0  0  0  0  0  0  0  0  0  0  0
   -1.5521    1.2131   -0.9569 C   0  0  0  0  0  0  0  0  0  0  0  0
   -2.9211    0.7570   -1.4530 C   0  0  0  0  0  0  0  0  0  0  0  0
   -3.6809    0.1451   -0.3758 N   0  0  0  0  0  0  0  0  0  0  0  0
   -4.9600    0.5966   -0.0995 C   0  0  0  0  0  0  0  0  0  0  0  0
   -5.7397   -0.1416    0.9598 C   0  0  0  0  0  0  0  0  0  0  0  0
   -5.4658    1.5611   -0.6742 O   0  0  0  0  0  0  0  0  0  0  0  0
   -3.0586   -1.0144    0.2502 C   0  0  0  0  0  0  0  0  0  0  0  0
    6.5796    0.0103   -0.5202 H   0  0  0  0  0  0  0  0  0  0  0  0
    5.2257    0.4124   -1.5791 H   0  0  0  0  0  0  0  0  0  0  0  0
    5.8801    1.6237   -0.4059 H   0  0  0  0  0  0  0  0  0  0  0  0
    3.2286   -1.6491    1.2165 H   0  0  0  0  0  0  0  0  0  0  0  0
    1.7034   -2.7819    2.7236 H   0  0  0  0  0  0  0  0  0  0  0  0
    1.9103   -3.6304    1.1567 H   0  0  0  0  0  0  0  0  0  0  0  0
    0.7979   -4.8417    2.6938 H   0  0  0  0  0  0  0  0  0  0  0  0
   -1.4634   -2.8088    1.3925 H   0  0  0  0  0  0  0  0  0  0  0  0
    0.9026    2.0797   -0.9993 H   0  0  0  0  0  0  0  0  0  0  0  0
    3.6792    4.3139   -1.3354 H   0  0  0  0  0  0  0  0  0  0  0  0
    2.2516    3.9202   -0.3708 H   0  0  0  0  0  0  0  0  0  0  0  0
    2.3669    3.4146   -2.1031 H   0  0  0  0  0  0  0  0  0  0  0  0
   -1.6676    2.0599   -0.2695 H   0  0  0  0  0  0  0  0  0  0  0  0
   -0.9915    1.5495   -1.8353 H   0  0  0  0  0  0  0  0  0  0  0  0
   -3.4543    1.6079   -1.8891 H   0  0  0  0  0  0  0  0  0  0  0  0
   -2.8150    0.0038   -2.2443 H   0  0  0  0  0  0  0  0  0  0  0  0
   -6.7687    0.2299    0.9788 H   0  0  0  0  0  0  0  0  0  0  0  0
   -5.7691   -1.2118    0.7388 H   0  0  0  0  0  0  0  0  0  0  0  0
   -5.2906    0.0315    1.9412 H   0  0  0  0  0  0  0  0  0  0  0  0
   -3.3477   -1.8875   -0.3472 H   0  0  0  0  0  0  0  0  0  0  0  0
   -3.4529   -1.1457    1.2622 H   0  0  0  0  0  0  0  0  0  0  0  0
  1  2  1  0
  2  3  1  0
  3  4  2  0
  4  5  1  0
  5  6  2  0
  6  7  1  0
  7  8  1  0
  6  9  1  0
  9 10  2  0
 10 11  1  0
 11 12  2  0
 12 13  1  0
 13 14  2  0
 14 15  1  0
 15 16  1  0
 11 17  1  0
 17 18  1  0
 18 19  1  0
 19 20  1  0
 20 21  1  0
 20 22  2  0
 19 23  1  0
 14  3  1  0
 12  5  1  0
 23 10  1  0
  1 24  1  0
  1 25  1  0
  1 26  1  0
  4 27  1  0
  7 28  1  0
  7 29  1  0
  8 30  1  0
  9 31  1  0
 13 32  1  0
 16 33  1  0
 16 34  1  0
 16 35  1  0
 17 36  1  0
 17 37  1  0
 18 38  1  0
 18 39  1  0
 21 40  1  0
 21 41  1  0
 21 42  1  0
 23 43  1  0
 23 44  1  0
M  END
>  <smiles>
COc1cc2c(CO)cc3c(c2cc1OC)CCN(C(C)=O)C3

$$$$
