mol_f7dcce6844d9
     RDKit          3D

 46 49  0  0  0  0  0  0  0  0999 V2000
   -5.4998    1.9430   -0.4133 C   0  0  0  0  0  0  0  0  0  0  0  0
   -4.1767    1.3360   -0.4478 N   0  0  0  0  0  0  0  0  0  0  0  0
   -3.4067    1.5337   -1.6726 C   0  0  0  0  0  0  0  0  0  0  0  0
   -2.1156    2.2962   -1.4130 C   0  0  0  0  0  0  0  0  0  0  0  0
   -1.0859    1.4446   -0.8876 N   0  0  0  0  0  0  0  0  0  0  0  0
    0.2685    1.5129   -1.2606 C   0  0  0  0  0  0  0  0  0  0  0  0
    0.7647    2.3047   -2.0458 O   0  0  0  0  0  0  0  0  0  0  0  0
    0.9263    0.4804   -0.5577 N   0  0  0  0  0  0  0  0  0  0  0  0
    2.3519    0.2230   -0.6555 C   0  0  0  0  0  0  0  0  0  0  0  0
    2.6764   -1.1524   -1.2686 C   0  0  0  0  0  0  0  0  0  0  0  0
    4.0130   -1.7235   -0.7912 C   0  0  0  0  0  0  0  0  0  0  0  0
    5.0493   -0.6280   -0.5809 C   0  0  0  0  0  0  0  0  0  0  0  0
    4.6149    0.3830    0.4820 C   0  0  0  0  0  0  0  0  0  0  0  0
    3.0974    0.4788    0.6601 C   0  0  0  0  0  0  0  0  0  0  0  0
   -0.0212   -0.1977    0.2323 C   0  0  0  0  0  0  0  0  0  0  0  0
    0.1461   -1.2763    1.0770 C   0  0  0  0  0  0  0  0  0  0  0  0
   -0.9819   -1.7547    1.7515 C   0  0  0  0  0  0  0  0  0  0  0  0
   -0.8030   -2.9138    2.6593 C   0  0  0  0  0  0  0  0  0  0  0  0
    0.2521   -3.4748    2.8893 O   0  0  0  0  0  0  0  0  0  0  0  0
   -1.9520   -3.3153    3.2254 O   0  0  0  0  0  0  0  0  0  0  0  0
   -2.2381   -1.1381    1.5673 C   0  0  0  0  0  0  0  0  0  0  0  0
   -2.4063   -0.0390    0.6973 C   0  0  0  0  0  0  0  0  0  0  0  0
   -1.2745    0.4085    0.0367 C   0  0  0  0  0  0  0  0  0  0  0  0
   -3.7620    0.5735    0.6396 C   0  0  0  0  0  0  0  0  0  0  0  0
   -4.5023    0.3705    1.6036 O   0  0  0  0  0  0  0  0  0  0  0  0
   -6.1098    1.4948   -1.2033 H   0  0  0  0  0  0  0  0  0  0  0  0
   -5.3979    3.0173   -0.5949 H   0  0  0  0  0  0  0  0  0  0  0  0
   -6.0038    1.7982    0.5453 H   0  0  0  0  0  0  0  0  0  0  0  0
   -3.2116    0.5508   -2.1178 H   0  0  0  0  0  0  0  0  0  0  0  0
   -4.0218    2.1007   -2.3810 H   0  0  0  0  0  0  0  0  0  0  0  0
   -2.2673    3.1212   -0.7074 H   0  0  0  0  0  0  0  0  0  0  0  0
   -1.7547    2.7307   -2.3520 H   0  0  0  0  0  0  0  0  0  0  0  0
    2.7441    0.9668   -1.3639 H   0  0  0  0  0  0  0  0  0  0  0  0
    1.8925   -1.8914   -1.0713 H   0  0  0  0  0  0  0  0  0  0  0  0
    2.6982   -1.0435   -2.3611 H   0  0  0  0  0  0  0  0  0  0  0  0
    3.8629   -2.2663    0.1505 H   0  0  0  0  0  0  0  0  0  0  0  0
    4.3792   -2.4553   -1.5202 H   0  0  0  0  0  0  0  0  0  0  0  0
    5.2142   -0.1046   -1.5313 H   0  0  0  0  0  0  0  0  0  0  0  0
    6.0129   -1.0666   -0.2977 H   0  0  0  0  0  0  0  0  0  0  0  0
    5.0194    1.3673    0.2163 H   0  0  0  0  0  0  0  0  0  0  0  0
    5.0647    0.1211    1.4475 H   0  0  0  0  0  0  0  0  0  0  0  0
    2.8405    1.4661    1.0632 H   0  0  0  0  0  0  0  0  0  0  0  0
    2.7901   -0.2460    1.4219 H   0  0  0  0  0  0  0  0  0  0  0  0
    1.1106   -1.7507    1.2189 H   0  0  0  0  0  0  0  0  0  0  0  0
   -1.6951   -4.0709    3.7946 H   0  0  0  0  0  0  0  0  0  0  0  0
   -3.1016   -1.5149    2.1169 H   0  0  0  0  0  0  0  0  0  0  0  0
  1  2  1  0
  2  3  1  0
  3  4  1  0
  4  5  1  0
  5  6  1  0
  6  7  2  0
  6  8  1  0
  8  9  1  0
  9 10  1  0
 10 11  1  0
 11 12  1  0
 12 13  1  0
 13 14  1  0
  8 15  1  0
 15 16  2  0
 16 17  1  0
 17 18  1  0
 18 19  2  0
 18 20  1  0
 17 21  2  0
 21 22  1  0
 22 23  2  0
 22 24  1  0
 24 25  2  0
 24  2  1  0
 23  5  1  0
 14  9  1  0
 23 15  1  0
  1 26  1  0
  1 27  1  0
  1 28  1  0
  3 29  1  0
  3 30  1  0
  4 31  1  0
  4 32  1  0
  9 33  1  0
 10 34  1  0
 10 35  1  0
 11 36  1  0
 11 37  1  0
 12 38  1  0
 12 39  1  0
 13 40  1  0
 13 41  1  0
 14 42  1  0
 14 43  1  0
 16 44  1  0
 20 45  1  0
 21 46  1  0
M  END
>  <smiles>
CN1CCn2c(=O)n(C3CCCCC3)c3cc(C(=O)O)cc(c32)C1=O

$$$$
