mol_adb04a69679a
     RDKit          3D

 45 48  0  0  0  0  0  0  0  0999 V2000
    5.5775    2.3161    1.4466 O   0  0  0  0  0  0  0  0  0  0  0  0
    5.4341    1.3928    0.6622 C   0  0  0  0  0  0  0  0  0  0  0  0
    6.2328    1.3028   -0.4203 O   0  0  0  0  0  0  0  0  0  0  0  0
    4.5018    0.2186    0.8075 C   0  0  0  0  0  0  0  0  0  0  0  0
    3.8931   -0.2524   -0.5113 C   0  0  0  0  0  0  0  0  0  0  0  0
    2.5029   -0.7161   -0.1192 C   0  0  0  0  0  0  0  0  0  0  0  0
    2.1160    0.3074    0.8473 N   0  0  0  0  0  0  0  0  0  0  0  0
    0.9212   -0.0246    1.6277 C   0  0  0  0  0  0  0  0  0  0  0  0
   -0.3451   -0.0489    0.7863 C   0  0  0  0  0  0  0  0  0  0  0  0
   -0.8358    1.1964    0.3591 C   0  0  0  0  0  0  0  0  0  0  0  0
   -1.9843    1.2916   -0.4136 C   0  0  0  0  0  0  0  0  0  0  0  0
   -2.7051    0.1448   -0.7605 C   0  0  0  0  0  0  0  0  0  0  0  0
   -2.2174   -1.1371   -0.3727 C   0  0  0  0  0  0  0  0  0  0  0  0
   -2.8804   -2.3325   -0.7410 C   0  0  0  0  0  0  0  0  0  0  0  0
   -2.4093   -3.5909   -0.3692 C   0  0  0  0  0  0  0  0  0  0  0  0
   -1.2538   -3.6913    0.3829 C   0  0  0  0  0  0  0  0  0  0  0  0
   -0.5746   -2.5331    0.7619 C   0  0  0  0  0  0  0  0  0  0  0  0
   -1.0265   -1.2384    0.4057 C   0  0  0  0  0  0  0  0  0  0  0  0
   -3.9823    0.2904   -1.5628 C   0  0  0  0  0  0  0  0  0  0  0  0
   -4.4397    1.7404   -1.6967 C   0  0  0  0  0  0  0  0  0  0  0  0
   -5.1791    2.1312   -0.5331 O   0  0  0  0  0  0  0  0  0  0  0  0
   -3.2322    2.6462   -1.8800 C   0  0  0  0  0  0  0  0  0  0  0  0
   -2.3547    2.5659   -0.7520 O   0  0  0  0  0  0  0  0  0  0  0  0
    3.2949    0.5392    1.6944 C   0  0  0  0  0  0  0  0  0  0  0  0
    6.7944    2.1045   -0.3665 H   0  0  0  0  0  0  0  0  0  0  0  0
    5.0773   -0.5987    1.2605 H   0  0  0  0  0  0  0  0  0  0  0  0
    3.8300    0.5660   -1.2400 H   0  0  0  0  0  0  0  0  0  0  0  0
    4.4779   -1.0594   -0.9646 H   0  0  0  0  0  0  0  0  0  0  0  0
    1.8401   -0.7503   -0.9891 H   0  0  0  0  0  0  0  0  0  0  0  0
    2.5505   -1.7131    0.3360 H   0  0  0  0  0  0  0  0  0  0  0  0
    0.7729    0.7488    2.3952 H   0  0  0  0  0  0  0  0  0  0  0  0
    1.0589   -0.9490    2.1969 H   0  0  0  0  0  0  0  0  0  0  0  0
   -0.2998    2.1065    0.6246 H   0  0  0  0  0  0  0  0  0  0  0  0
   -3.7888   -2.3047   -1.3382 H   0  0  0  0  0  0  0  0  0  0  0  0
   -2.9468   -4.4855   -0.6715 H   0  0  0  0  0  0  0  0  0  0  0  0
   -0.8745   -4.6664    0.6764 H   0  0  0  0  0  0  0  0  0  0  0  0
    0.3320   -2.6717    1.3431 H   0  0  0  0  0  0  0  0  0  0  0  0
   -4.7836   -0.2875   -1.0878 H   0  0  0  0  0  0  0  0  0  0  0  0
   -3.7927   -0.1145   -2.5646 H   0  0  0  0  0  0  0  0  0  0  0  0
   -5.1234    1.8346   -2.5467 H   0  0  0  0  0  0  0  0  0  0  0  0
   -4.5330    2.2017    0.1961 H   0  0  0  0  0  0  0  0  0  0  0  0
   -3.5570    3.6900   -1.9467 H   0  0  0  0  0  0  0  0  0  0  0  0
   -2.6750    2.4073   -2.7941 H   0  0  0  0  0  0  0  0  0  0  0  0
    3.2830    1.5640    2.0784 H   0  0  0  0  0  0  0  0  0  0  0  0
    3.3038   -0.1412    2.5560 H   0  0  0  0  0  0  0  0  0  0  0  0
  1  2  2  0
  2  3  1  0
  2  4  1  0
  4  5  1  0
  5  6  1  0
  6  7  1  0
  7  8  1  0
  8  9  1  0
  9 10  2  0
 10 11  1  0
 11 12  2  0
 12 13  1  0
 13 14  2  0
 14 15  1  0
 15 16  2  0
 16 17  1  0
 17 18  2  0
 12 19  1  0
 19 20  1  0
 20 21  1  0
 20 22  1  0
 22 23  1  0
  7 24  1  0
 24  4  1  0
 18  9  1  0
 23 11  1  0
 18 13  1  0
  3 25  1  0
  4 26  1  0
  5 27  1  0
  5 28  1  0
  6 29  1  0
  6 30  1  0
  8 31  1  0
  8 32  1  0
 10 33  1  0
 14 34  1  0
 15 35  1  0
 16 36  1  0
 17 37  1  0
 19 38  1  0
 19 39  1  0
 20 40  1  0
 21 41  1  0
 22 42  1  0
 22 43  1  0
 24 44  1  0
 24 45  1  0
M  END
>  <smiles>
O=C(O)C1CCN(Cc2cc3c(c4ccccc24)CC(O)CO3)C1

$$$$
