mol_fc75fc5052a1
     RDKit          3D

 38 39  0  0  0  0  0  0  0  0999 V2000
    4.8294   -2.3791    0.5552 C   0  0  0  0  0  0  0  0  0  0  0  0
    3.4700   -2.7213    0.3171 O   0  0  0  0  0  0  0  0  0  0  0  0
    2.5577   -1.7029    0.3470 C   0  0  0  0  0  0  0  0  0  0  0  0
    1.2461   -2.0909    0.0811 C   0  0  0  0  0  0  0  0  0  0  0  0
    0.2081   -1.1555    0.0909 C   0  0  0  0  0  0  0  0  0  0  0  0
    0.4650    0.1980    0.3433 C   0  0  0  0  0  0  0  0  0  0  0  0
   -0.6166    1.1356    0.3467 N   0  0  0  0  0  0  0  0  0  0  0  0
   -1.8121    0.8146    1.1282 C   0  0  0  0  0  0  0  0  0  0  0  0
   -2.9203    0.1439    0.3490 C   0  0  0  0  0  0  0  0  0  0  0  0
   -3.4383    0.6944   -0.8328 C   0  0  0  0  0  0  0  0  0  0  0  0
   -4.4799    0.0606   -1.5174 C   0  0  0  0  0  0  0  0  0  0  0  0
   -5.0258   -1.1241   -1.0258 C   0  0  0  0  0  0  0  0  0  0  0  0
   -4.5337   -1.6728    0.1554 C   0  0  0  0  0  0  0  0  0  0  0  0
   -3.4963   -1.0361    0.8321 C   0  0  0  0  0  0  0  0  0  0  0  0
   -3.0442   -1.5850    1.9688 F   0  0  0  0  0  0  0  0  0  0  0  0
   -0.5330    2.3902   -0.2285 C   0  0  0  0  0  0  0  0  0  0  0  0
   -1.3065    3.3238   -0.0611 O   0  0  0  0  0  0  0  0  0  0  0  0
    0.4482    2.5354   -1.1459 O   0  0  0  0  0  0  0  0  0  0  0  0
    1.7927    0.5871    0.6253 C   0  0  0  0  0  0  0  0  0  0  0  0
    2.0115    1.8815    1.0416 O   0  0  0  0  0  0  0  0  0  0  0  0
    3.2204    2.4633    0.5624 C   0  0  0  0  0  0  0  0  0  0  0  0
    2.8269   -0.3647    0.6327 C   0  0  0  0  0  0  0  0  0  0  0  0
    5.1958   -1.6683   -0.1930 H   0  0  0  0  0  0  0  0  0  0  0  0
    5.4248   -3.2929    0.4658 H   0  0  0  0  0  0  0  0  0  0  0  0
    4.9654   -1.9912    1.5701 H   0  0  0  0  0  0  0  0  0  0  0  0
    1.0256   -3.1335   -0.1365 H   0  0  0  0  0  0  0  0  0  0  0  0
   -0.7913   -1.5044   -0.1457 H   0  0  0  0  0  0  0  0  0  0  0  0
   -2.2248    1.7375    1.5556 H   0  0  0  0  0  0  0  0  0  0  0  0
   -1.5061    0.2048    1.9878 H   0  0  0  0  0  0  0  0  0  0  0  0
   -3.0426    1.6264   -1.2299 H   0  0  0  0  0  0  0  0  0  0  0  0
   -4.8681    0.4983   -2.4344 H   0  0  0  0  0  0  0  0  0  0  0  0
   -5.8364   -1.6137   -1.5593 H   0  0  0  0  0  0  0  0  0  0  0  0
   -4.9517   -2.5906    0.5566 H   0  0  0  0  0  0  0  0  0  0  0  0
    0.3197    3.4567   -1.4445 H   0  0  0  0  0  0  0  0  0  0  0  0
    4.0623    2.1782    1.2007 H   0  0  0  0  0  0  0  0  0  0  0  0
    3.4174    2.2018   -0.4834 H   0  0  0  0  0  0  0  0  0  0  0  0
    3.1123    3.5506    0.6203 H   0  0  0  0  0  0  0  0  0  0  0  0
    3.8283   -0.0555    0.9028 H   0  0  0  0  0  0  0  0  0  0  0  0
  1  2  1  0
  2  3  1  0
  3  4  1  0
  4  5  2  0
  5  6  1  0
  6  7  1  0
  7  8  1  0
  8  9  1  0
  9 10  2  0
 10 11  1  0
 11 12  2  0
 12 13  1  0
 13 14  2  0
 14 15  1  0
  7 16  1  0
 16 17  2  0
 16 18  1  0
  6 19  2  0
 19 20  1  0
 20 21  1  0
 19 22  1  0
 22  3  2  0
 14  9  1  0
  1 23  1  0
  1 24  1  0
  1 25  1  0
  4 26  1  0
  5 27  1  0
  8 28  1  0
  8 29  1  0
 10 30  1  0
 11 31  1  0
 12 32  1  0
 13 33  1  0
 18 34  1  0
 21 35  1  0
 21 36  1  0
 21 37  1  0
 22 38  1  0
M  END
>  <smiles>
COc1ccc(N(Cc2ccccc2F)C(=O)O)c(OC)c1

$$$$
