mol_9e7c5ece0e2f
     RDKit          3D

 43 44  0  0  0  0  0  0  0  0999 V2000
    4.0189   -0.5348   -2.4076 C   0  0  0  0  0  0  0  0  0  0  0  0
    2.6509   -0.3663   -1.8126 C   0  0  0  0  0  0  0  0  0  0  0  0
    1.6273   -0.8428   -2.5696 N   0  0  0  0  0  0  0  0  0  0  0  0
    0.3696   -0.7246   -2.0800 C   0  0  0  0  0  0  0  0  0  0  0  0
    0.0634   -0.1279   -0.8699 C   0  0  0  0  0  0  0  0  0  0  0  0
   -1.3248   -0.0072   -0.3665 C   0  0  0  0  0  0  0  0  0  0  0  0
   -1.5328    0.0361    0.8402 O   0  0  0  0  0  0  0  0  0  0  0  0
   -2.3258    0.0841   -1.3129 N   0  0  0  0  0  0  0  0  0  0  0  0
   -3.7360    0.2276   -0.9739 C   0  0  0  0  0  0  0  0  0  0  0  0
   -4.0776    1.5199   -0.2162 C   0  0  0  0  0  0  0  0  0  0  0  0
   -4.9961    1.1009    0.9328 C   0  0  0  0  0  0  0  0  0  0  0  0
   -5.5237   -0.2689    0.5366 C   0  0  0  0  0  0  0  0  0  0  0  0
   -4.3168   -0.9172   -0.1232 C   0  0  0  0  0  0  0  0  0  0  0  0
   -4.7109   -2.0181   -0.9305 O   0  0  0  0  0  0  0  0  0  0  0  0
    1.1251    0.3427   -0.0989 C   0  0  0  0  0  0  0  0  0  0  0  0
    2.4489    0.2324   -0.5619 C   0  0  0  0  0  0  0  0  0  0  0  0
    3.5756    0.7738    0.2924 C   0  0  0  0  0  0  0  0  0  0  0  0
    3.6465    0.1482    1.6242 N   0  0  0  0  0  0  0  0  0  0  0  0
    4.5481    0.9073    2.4925 C   0  0  0  0  0  0  0  0  0  0  0  0
    4.0886   -1.2462    1.5449 C   0  0  0  0  0  0  0  0  0  0  0  0
    4.6485   -1.1453   -1.7531 H   0  0  0  0  0  0  0  0  0  0  0  0
    3.9613   -1.0391   -3.3781 H   0  0  0  0  0  0  0  0  0  0  0  0
    4.4887    0.4405   -2.5673 H   0  0  0  0  0  0  0  0  0  0  0  0
   -0.3921   -1.1617   -2.7172 H   0  0  0  0  0  0  0  0  0  0  0  0
   -2.0863    0.1759   -2.2908 H   0  0  0  0  0  0  0  0  0  0  0  0
   -4.2526    0.2442   -1.9432 H   0  0  0  0  0  0  0  0  0  0  0  0
   -3.2013    2.0571    0.1606 H   0  0  0  0  0  0  0  0  0  0  0  0
   -4.6071    2.2065   -0.8875 H   0  0  0  0  0  0  0  0  0  0  0  0
   -4.4137    1.0220    1.8588 H   0  0  0  0  0  0  0  0  0  0  0  0
   -5.8003    1.8225    1.1036 H   0  0  0  0  0  0  0  0  0  0  0  0
   -5.8831   -0.8441    1.3954 H   0  0  0  0  0  0  0  0  0  0  0  0
   -6.3579   -0.1819   -0.1703 H   0  0  0  0  0  0  0  0  0  0  0  0
   -3.6233   -1.2815    0.6414 H   0  0  0  0  0  0  0  0  0  0  0  0
   -3.8876   -2.4359   -1.2381 H   0  0  0  0  0  0  0  0  0  0  0  0
    0.9294    0.7935    0.8737 H   0  0  0  0  0  0  0  0  0  0  0  0
    3.3803    1.8499    0.4015 H   0  0  0  0  0  0  0  0  0  0  0  0
    4.5452    0.7006   -0.2128 H   0  0  0  0  0  0  0  0  0  0  0  0
    4.1946    1.9379    2.6088 H   0  0  0  0  0  0  0  0  0  0  0  0
    4.5728    0.4720    3.4978 H   0  0  0  0  0  0  0  0  0  0  0  0
    5.5721    0.9349    2.1026 H   0  0  0  0  0  0  0  0  0  0  0  0
    3.3844   -1.8553    0.9685 H   0  0  0  0  0  0  0  0  0  0  0  0
    5.0807   -1.3392    1.0882 H   0  0  0  0  0  0  0  0  0  0  0  0
    4.1291   -1.6923    2.5452 H   0  0  0  0  0  0  0  0  0  0  0  0
  1  2  1  0
  2  3  1  0
  3  4  2  0
  4  5  1  0
  5  6  1  0
  6  7  2  0
  6  8  1  0
  8  9  1  0
  9 10  1  0
 10 11  1  0
 11 12  1  0
 12 13  1  0
 13 14  1  0
  5 15  2  0
 15 16  1  0
 16 17  1  0
 17 18  1  0
 18 19  1  0
 18 20  1  0
 16  2  2  0
 13  9  1  0
  1 21  1  0
  1 22  1  0
  1 23  1  0
  4 24  1  0
  8 25  1  0
  9 26  1  0
 10 27  1  0
 10 28  1  0
 11 29  1  0
 11 30  1  0
 12 31  1  0
 12 32  1  0
 13 33  1  0
 14 34  1  0
 15 35  1  0
 17 36  1  0
 17 37  1  0
 19 38  1  0
 19 39  1  0
 19 40  1  0
 20 41  1  0
 20 42  1  0
 20 43  1  0
M  END
>  <smiles>
Cc1ncc(C(=O)NC2CCCC2O)cc1CN(C)C

$$$$
