mol_6e055a82e308
     RDKit          3D

 57 61  0  0  0  0  0  0  0  0999 V2000
    3.9200   -2.0131    0.0862 C   0  0  0  0  0  0  0  0  0  0  0  0
    4.0843   -0.5015    0.2639 C   0  0  0  0  0  0  0  0  0  0  0  0
    3.7241   -0.0846    1.6963 C   0  0  0  0  0  0  0  0  0  0  0  0
    2.2187    0.1277    1.6555 C   0  0  0  0  0  0  0  0  0  0  0  0
    1.9890    0.8300    0.3060 C   0  0  0  0  0  0  0  0  0  0  0  0
    0.6158    0.7789   -0.2311 N   0  0  0  0  0  0  0  0  0  0  0  0
    0.1418    1.9943   -0.8605 C   0  0  0  0  0  0  0  0  0  0  0  0
   -0.7682    2.7329    0.0917 C   0  0  0  0  0  0  0  0  0  0  0  0
   -2.1809    2.2452   -0.1237 C   0  0  0  0  0  0  0  0  0  0  0  0
   -3.1297    2.7143    0.9487 C   0  0  0  0  0  0  0  0  0  0  0  0
   -3.4834    4.0253    1.0810 O   0  0  0  0  0  0  0  0  0  0  0  0
   -3.5951    1.7305    1.7224 C   0  0  0  0  0  0  0  0  0  0  0  0
   -2.9975    0.4206    1.3185 C   0  0  0  0  0  0  0  0  0  0  0  0
   -3.9564   -0.7589    1.1531 C   0  0  0  0  0  0  0  0  0  0  0  0
   -3.3899   -1.8211    0.2230 C   0  0  0  0  0  0  0  0  0  0  0  0
   -4.0789   -3.0394    0.1105 C   0  0  0  0  0  0  0  0  0  0  0  0
   -3.5898   -4.0568   -0.7074 C   0  0  0  0  0  0  0  0  0  0  0  0
   -2.4099   -3.8695   -1.4222 C   0  0  0  0  0  0  0  0  0  0  0  0
   -1.7163   -2.6614   -1.3276 C   0  0  0  0  0  0  0  0  0  0  0  0
   -2.1930   -1.6242   -0.5148 C   0  0  0  0  0  0  0  0  0  0  0  0
   -1.4881   -0.3519   -0.4360 N   0  0  0  0  0  0  0  0  0  0  0  0
   -0.1034   -0.4012   -0.2588 C   0  0  0  0  0  0  0  0  0  0  0  0
    0.4873   -1.4716   -0.0907 O   0  0  0  0  0  0  0  0  0  0  0  0
   -2.4278    0.7260   -0.0760 C   0  0  0  0  0  0  0  0  0  0  0  0
    3.1690    0.3938   -0.6374 C   0  0  0  0  0  0  0  0  0  0  0  0
    2.7515   -0.2699   -1.9580 C   0  0  0  0  0  0  0  0  0  0  0  0
    3.9726    1.6631   -1.0272 C   0  0  0  0  0  0  0  0  0  0  0  0
    2.8913   -2.3437    0.2488 H   0  0  0  0  0  0  0  0  0  0  0  0
    4.5546   -2.5508    0.7994 H   0  0  0  0  0  0  0  0  0  0  0  0
    4.2280   -2.3261   -0.9164 H   0  0  0  0  0  0  0  0  0  0  0  0
    5.1437   -0.2787    0.0838 H   0  0  0  0  0  0  0  0  0  0  0  0
    4.2253    0.8572    1.9510 H   0  0  0  0  0  0  0  0  0  0  0  0
    4.0134   -0.8265    2.4471 H   0  0  0  0  0  0  0  0  0  0  0  0
    1.8741    0.7451    2.4922 H   0  0  0  0  0  0  0  0  0  0  0  0
    1.7107   -0.8344    1.7464 H   0  0  0  0  0  0  0  0  0  0  0  0
    2.1437    1.8911    0.5552 H   0  0  0  0  0  0  0  0  0  0  0  0
   -0.3613    1.7418   -1.8020 H   0  0  0  0  0  0  0  0  0  0  0  0
    0.9972    2.6239   -1.1280 H   0  0  0  0  0  0  0  0  0  0  0  0
   -0.4472    2.6113    1.1341 H   0  0  0  0  0  0  0  0  0  0  0  0
   -0.7285    3.8074   -0.1275 H   0  0  0  0  0  0  0  0  0  0  0  0
   -2.5298    2.6215   -1.0959 H   0  0  0  0  0  0  0  0  0  0  0  0
   -3.0399    4.5445    0.3887 H   0  0  0  0  0  0  0  0  0  0  0  0
   -4.2721    1.8686    2.5534 H   0  0  0  0  0  0  0  0  0  0  0  0
   -2.1977    0.1561    2.0239 H   0  0  0  0  0  0  0  0  0  0  0  0
   -4.9150   -0.4193    0.7391 H   0  0  0  0  0  0  0  0  0  0  0  0
   -4.1599   -1.1990    2.1369 H   0  0  0  0  0  0  0  0  0  0  0  0
   -4.9970   -3.2037    0.6702 H   0  0  0  0  0  0  0  0  0  0  0  0
   -4.1256   -4.9995   -0.7824 H   0  0  0  0  0  0  0  0  0  0  0  0
   -2.0236   -4.6640   -2.0552 H   0  0  0  0  0  0  0  0  0  0  0  0
   -0.8039   -2.5366   -1.9055 H   0  0  0  0  0  0  0  0  0  0  0  0
   -3.2407    0.6108   -0.8185 H   0  0  0  0  0  0  0  0  0  0  0  0
    2.1934   -1.1967   -1.8122 H   0  0  0  0  0  0  0  0  0  0  0  0
    3.6321   -0.5196   -2.5618 H   0  0  0  0  0  0  0  0  0  0  0  0
    2.1278    0.4000   -2.5602 H   0  0  0  0  0  0  0  0  0  0  0  0
    4.8457    1.4039   -1.6371 H   0  0  0  0  0  0  0  0  0  0  0  0
    4.3383    2.1996   -0.1445 H   0  0  0  0  0  0  0  0  0  0  0  0
    3.3571    2.3584   -1.6083 H   0  0  0  0  0  0  0  0  0  0  0  0
  1  2  1  0
  2  3  1  0
  3  4  1  0
  4  5  1  0
  5  6  1  0
  6  7  1  0
  7  8  1  0
  8  9  1  0
  9 10  1  0
 10 11  1  0
 10 12  2  0
 12 13  1  0
 13 14  1  0
 14 15  1  0
 15 16  2  0
 16 17  1  0
 17 18  2  0
 18 19  1  0
 19 20  2  0
 20 21  1  0
 21 22  1  0
 22 23  2  0
 21 24  1  0
  5 25  1  0
 25 26  1  0
 25 27  1  0
 25  2  1  0
 22  6  1  0
 24  9  1  0
 24 13  1  0
 20 15  1  0
  1 28  1  0
  1 29  1  0
  1 30  1  0
  2 31  1  0
  3 32  1  0
  3 33  1  0
  4 34  1  0
  4 35  1  0
  5 36  1  0
  7 37  1  0
  7 38  1  0
  8 39  1  0
  8 40  1  0
  9 41  1  0
 11 42  1  0
 12 43  1  0
 13 44  1  0
 14 45  1  0
 14 46  1  0
 16 47  1  0
 17 48  1  0
 18 49  1  0
 19 50  1  0
 24 51  1  0
 26 52  1  0
 26 53  1  0
 26 54  1  0
 27 55  1  0
 27 56  1  0
 27 57  1  0
M  END
>  <smiles>
CC1CCC(N2CCC3C(O)=CC4Cc5ccccc5N(C2=O)C43)C1(C)C

$$$$
