mol_e5a0cd452f87
     RDKit          3D

 49 51  0  0  0  0  0  0  0  0999 V2000
    0.3781    0.2000    0.9261 O   0  0  0  0  0  0  0  0  0  0  0  0
    0.8352   -0.3730   -0.0564 C   0  0  0  0  0  0  0  0  0  0  0  0
    2.2458   -0.1106   -0.5480 C   0  0  0  0  0  0  0  0  0  0  0  0
    3.1031    0.5236    0.5403 C   0  0  0  0  0  0  0  0  0  0  0  0
    4.4478    0.8365    0.0593 N   0  0  0  0  0  0  0  0  0  0  0  0
    4.6890    2.1029   -0.6121 C   0  0  0  0  0  0  0  0  0  0  0  0
    6.0169    2.7165   -0.1811 C   0  0  0  0  0  0  0  0  0  0  0  0
    7.1262    1.6787    0.0060 C   0  0  0  0  0  0  0  0  0  0  0  0
    6.7523    0.3046   -0.5338 C   0  0  0  0  0  0  0  0  0  0  0  0
    5.4254   -0.1496    0.0393 C   0  0  0  0  0  0  0  0  0  0  0  0
    5.2334   -1.3073    0.3992 O   0  0  0  0  0  0  0  0  0  0  0  0
    0.1676   -1.2703   -0.8747 N   0  0  0  0  0  0  0  0  0  0  0  0
   -1.1614   -1.7269   -0.7511 C   0  0  0  0  0  0  0  0  0  0  0  0
   -1.6126   -2.6419   -1.7104 C   0  0  0  0  0  0  0  0  0  0  0  0
   -2.9172   -3.1370   -1.6656 C   0  0  0  0  0  0  0  0  0  0  0  0
   -3.7853   -2.7237   -0.6580 C   0  0  0  0  0  0  0  0  0  0  0  0
   -3.3534   -1.8154    0.3161 C   0  0  0  0  0  0  0  0  0  0  0  0
   -4.2938   -1.3536    1.4064 C   0  0  0  0  0  0  0  0  0  0  0  0
   -5.2785   -0.3009    0.9521 C   0  0  0  0  0  0  0  0  0  0  0  0
   -4.8660    1.0275    0.7721 C   0  0  0  0  0  0  0  0  0  0  0  0
   -5.7724    1.9997    0.3462 C   0  0  0  0  0  0  0  0  0  0  0  0
   -7.0987    1.6548    0.0939 C   0  0  0  0  0  0  0  0  0  0  0  0
   -7.5197    0.3374    0.2656 C   0  0  0  0  0  0  0  0  0  0  0  0
   -6.6146   -0.6367    0.6912 C   0  0  0  0  0  0  0  0  0  0  0  0
   -2.0380   -1.3206    0.2573 C   0  0  0  0  0  0  0  0  0  0  0  0
    2.6987   -1.0514   -0.8826 H   0  0  0  0  0  0  0  0  0  0  0  0
    2.1808    0.5511   -1.4199 H   0  0  0  0  0  0  0  0  0  0  0  0
    3.1892   -0.1722    1.3841 H   0  0  0  0  0  0  0  0  0  0  0  0
    2.6526    1.4430    0.9313 H   0  0  0  0  0  0  0  0  0  0  0  0
    4.6959    1.9052   -1.6907 H   0  0  0  0  0  0  0  0  0  0  0  0
    3.8719    2.8021   -0.4054 H   0  0  0  0  0  0  0  0  0  0  0  0
    5.8806    3.2522    0.7669 H   0  0  0  0  0  0  0  0  0  0  0  0
    6.3224    3.4706   -0.9158 H   0  0  0  0  0  0  0  0  0  0  0  0
    7.3418    1.5902    1.0789 H   0  0  0  0  0  0  0  0  0  0  0  0
    8.0509    2.0302   -0.4656 H   0  0  0  0  0  0  0  0  0  0  0  0
    7.5237   -0.4230   -0.2596 H   0  0  0  0  0  0  0  0  0  0  0  0
    6.6743    0.3188   -1.6266 H   0  0  0  0  0  0  0  0  0  0  0  0
    0.6920   -1.6547   -1.6508 H   0  0  0  0  0  0  0  0  0  0  0  0
   -0.9583   -2.9811   -2.5089 H   0  0  0  0  0  0  0  0  0  0  0  0
   -3.2578   -3.8423   -2.4190 H   0  0  0  0  0  0  0  0  0  0  0  0
   -4.8021   -3.1088   -0.6371 H   0  0  0  0  0  0  0  0  0  0  0  0
   -4.8291   -2.2255    1.8058 H   0  0  0  0  0  0  0  0  0  0  0  0
   -3.7236   -0.9627    2.2596 H   0  0  0  0  0  0  0  0  0  0  0  0
   -3.8322    1.3103    0.9602 H   0  0  0  0  0  0  0  0  0  0  0  0
   -5.4412    3.0256    0.2095 H   0  0  0  0  0  0  0  0  0  0  0  0
   -7.8033    2.4122   -0.2383 H   0  0  0  0  0  0  0  0  0  0  0  0
   -8.5534    0.0678    0.0668 H   0  0  0  0  0  0  0  0  0  0  0  0
   -6.9590   -1.6602    0.8179 H   0  0  0  0  0  0  0  0  0  0  0  0
   -1.7239   -0.6121    1.0174 H   0  0  0  0  0  0  0  0  0  0  0  0
  1  2  2  0
  2  3  1  0
  3  4  1  0
  4  5  1  0
  5  6  1  0
  6  7  1  0
  7  8  1  0
  8  9  1  0
  9 10  1  0
 10 11  2  0
  2 12  1  0
 12 13  1  0
 13 14  1  0
 14 15  2  0
 15 16  1  0
 16 17  2  0
 17 18  1  0
 18 19  1  0
 19 20  2  0
 20 21  1  0
 21 22  2  0
 22 23  1  0
 23 24  2  0
 17 25  1  0
 10  5  1  0
 25 13  2  0
 24 19  1  0
  3 26  1  0
  3 27  1  0
  4 28  1  0
  4 29  1  0
  6 30  1  0
  6 31  1  0
  7 32  1  0
  7 33  1  0
  8 34  1  0
  8 35  1  0
  9 36  1  0
  9 37  1  0
 12 38  1  0
 14 39  1  0
 15 40  1  0
 16 41  1  0
 18 42  1  0
 18 43  1  0
 20 44  1  0
 21 45  1  0
 22 46  1  0
 23 47  1  0
 24 48  1  0
 25 49  1  0
M  END
>  <smiles>
O=C(CCN1CCCCC1=O)Nc1cccc(Cc2ccccc2)c1

$$$$
