mol_58d54c8c249b
     RDKit          3D

 48 51  0  0  0  0  0  0  0  0999 V2000
   -5.7590   -1.9511   -0.6562 C   0  0  0  0  0  0  0  0  0  0  0  0
   -5.0594   -0.6756   -0.2214 C   0  0  0  0  0  0  0  0  0  0  0  0
   -3.8943   -0.5171   -1.0346 O   0  0  0  0  0  0  0  0  0  0  0  0
   -2.8588    0.1866   -0.4305 C   0  0  0  0  0  0  0  0  0  0  0  0
   -1.5989   -0.2850   -0.5113 C   0  0  0  0  0  0  0  0  0  0  0  0
   -0.4748    0.4403    0.1056 C   0  0  0  0  0  0  0  0  0  0  0  0
    0.8105   -0.0015   -0.0066 C   0  0  0  0  0  0  0  0  0  0  0  0
    1.8691    0.6909    0.6306 N   0  0  0  0  0  0  0  0  0  0  0  0
    3.2924    0.3234    0.5348 C   0  0  0  0  0  0  0  0  0  0  0  0
    3.9443    0.5141   -0.8465 C   0  0  0  0  0  0  0  0  0  0  0  0
    4.8645   -0.6934   -1.0317 C   0  0  0  0  0  0  0  0  0  0  0  0
    5.0647   -1.2671    0.3654 C   0  0  0  0  0  0  0  0  0  0  0  0
    3.7134   -1.0612    1.0384 C   0  0  0  0  0  0  0  0  0  0  0  0
    1.6155    1.8416    1.3894 C   0  0  0  0  0  0  0  0  0  0  0  0
    2.4651    2.5088    1.9796 O   0  0  0  0  0  0  0  0  0  0  0  0
    0.3205    2.2538    1.4671 N   0  0  0  0  0  0  0  0  0  0  0  0
   -0.7503    1.6563    0.8702 C   0  0  0  0  0  0  0  0  0  0  0  0
   -1.9909    2.1707    0.9693 C   0  0  0  0  0  0  0  0  0  0  0  0
   -2.3990    3.4125    1.7124 C   0  0  0  0  0  0  0  0  0  0  0  0
   -3.1264    1.4851    0.2754 C   0  0  0  0  0  0  0  0  0  0  0  0
   -4.2495    1.9845    0.2986 O   0  0  0  0  0  0  0  0  0  0  0  0
    1.1102   -1.2445   -0.8251 C   0  0  0  0  0  0  0  0  0  0  0  0
    0.0553   -1.5441   -1.8820 C   0  0  0  0  0  0  0  0  0  0  0  0
   -1.3111   -1.5803   -1.2288 C   0  0  0  0  0  0  0  0  0  0  0  0
   -6.0245   -1.9031   -1.7175 H   0  0  0  0  0  0  0  0  0  0  0  0
   -6.6684   -2.1158   -0.0716 H   0  0  0  0  0  0  0  0  0  0  0  0
   -5.0970   -2.8145   -0.5318 H   0  0  0  0  0  0  0  0  0  0  0  0
   -4.7995   -0.7539    0.8413 H   0  0  0  0  0  0  0  0  0  0  0  0
   -5.7339    0.1719   -0.3779 H   0  0  0  0  0  0  0  0  0  0  0  0
    3.8560    1.0072    1.1840 H   0  0  0  0  0  0  0  0  0  0  0  0
    4.5340    1.4394   -0.8480 H   0  0  0  0  0  0  0  0  0  0  0  0
    3.2308    0.6067   -1.6705 H   0  0  0  0  0  0  0  0  0  0  0  0
    5.8126   -0.4194   -1.5043 H   0  0  0  0  0  0  0  0  0  0  0  0
    4.3785   -1.4381   -1.6724 H   0  0  0  0  0  0  0  0  0  0  0  0
    5.3619   -2.3194    0.3432 H   0  0  0  0  0  0  0  0  0  0  0  0
    5.8414   -0.7037    0.8963 H   0  0  0  0  0  0  0  0  0  0  0  0
    3.0359   -1.8627    0.7478 H   0  0  0  0  0  0  0  0  0  0  0  0
    3.7926   -1.0891    2.1302 H   0  0  0  0  0  0  0  0  0  0  0  0
    0.2154    3.0929    2.0178 H   0  0  0  0  0  0  0  0  0  0  0  0
   -3.1648    3.1729    2.4585 H   0  0  0  0  0  0  0  0  0  0  0  0
   -1.5795    3.8977    2.2465 H   0  0  0  0  0  0  0  0  0  0  0  0
   -2.8120    4.1517    1.0174 H   0  0  0  0  0  0  0  0  0  0  0  0
    1.1680   -2.1031   -0.1459 H   0  0  0  0  0  0  0  0  0  0  0  0
    2.0583   -1.1766   -1.3544 H   0  0  0  0  0  0  0  0  0  0  0  0
    0.2693   -2.5079   -2.3581 H   0  0  0  0  0  0  0  0  0  0  0  0
    0.0825   -0.7816   -2.6713 H   0  0  0  0  0  0  0  0  0  0  0  0
   -2.0559   -1.7943   -2.0038 H   0  0  0  0  0  0  0  0  0  0  0  0
   -1.3545   -2.4045   -0.5050 H   0  0  0  0  0  0  0  0  0  0  0  0
  1  2  1  0
  2  3  1  0
  3  4  1  0
  4  5  2  0
  5  6  1  0
  6  7  2  0
  7  8  1  0
  8  9  1  0
  9 10  1  0
 10 11  1  0
 11 12  1  0
 12 13  1  0
  8 14  1  0
 14 15  2  0
 14 16  1  0
 16 17  1  0
 17 18  2  0
 18 19  1  0
 18 20  1  0
 20 21  2  0
  7 22  1  0
 22 23  1  0
 23 24  1  0
 20  4  1  0
 24  5  1  0
 17  6  1  0
 13  9  1  0
  1 25  1  0
  1 26  1  0
  1 27  1  0
  2 28  1  0
  2 29  1  0
  9 30  1  0
 10 31  1  0
 10 32  1  0
 11 33  1  0
 11 34  1  0
 12 35  1  0
 12 36  1  0
 13 37  1  0
 13 38  1  0
 16 39  1  0
 19 40  1  0
 19 41  1  0
 19 42  1  0
 22 43  1  0
 22 44  1  0
 23 45  1  0
 23 46  1  0
 24 47  1  0
 24 48  1  0
M  END
>  <smiles>
CCOc1c2c3c(n(C4CCCC4)c(=O)[nH]c-3c(C)c1=O)CCC2

$$$$
