mol_9fdfd6c3e11b
     RDKit          3D

 38 41  0  0  0  0  0  0  0  0999 V2000
    2.1067   -3.6930    0.3869 C   0  0  0  0  0  0  0  0  0  0  0  0
    1.9365   -2.2040    0.4434 C   0  0  0  0  0  0  0  0  0  0  0  0
    2.8883   -1.4044    1.0742 C   0  0  0  0  0  0  0  0  0  0  0  0
    2.7155   -0.0189    1.1465 C   0  0  0  0  0  0  0  0  0  0  0  0
    1.5813    0.6103    0.6037 C   0  0  0  0  0  0  0  0  0  0  0  0
    0.5848   -0.2113    0.0157 C   0  0  0  0  0  0  0  0  0  0  0  0
    0.7864   -1.6022   -0.0767 C   0  0  0  0  0  0  0  0  0  0  0  0
   -0.6534    0.4641   -0.5773 C   0  0  0  0  0  0  0  0  0  0  0  0
   -1.8030   -0.4358   -0.8319 N   0  0  0  0  0  0  0  0  0  0  0  0
   -2.1498   -0.7167   -2.1489 C   0  0  0  0  0  0  0  0  0  0  0  0
   -3.1752   -1.5233   -2.4463 C   0  0  0  0  0  0  0  0  0  0  0  0
   -3.9486   -2.1229   -1.3929 C   0  0  0  0  0  0  0  0  0  0  0  0
   -3.6478   -1.8801   -0.1120 C   0  0  0  0  0  0  0  0  0  0  0  0
   -2.5105   -0.9859    0.2422 C   0  0  0  0  0  0  0  0  0  0  0  0
   -2.2695   -0.7909    1.4295 O   0  0  0  0  0  0  0  0  0  0  0  0
   -1.0626    1.7105    0.2396 C   0  0  0  0  0  0  0  0  0  0  0  0
    0.1141    2.6262    0.4436 C   0  0  0  0  0  0  0  0  0  0  0  0
   -0.0546    4.0058    0.4979 C   0  0  0  0  0  0  0  0  0  0  0  0
    0.9543    4.8792    0.6866 N   0  0  0  0  0  0  0  0  0  0  0  0
    2.1832    4.3498    0.8430 C   0  0  0  0  0  0  0  0  0  0  0  0
    2.4500    2.9879    0.8256 C   0  0  0  0  0  0  0  0  0  0  0  0
    1.3978    2.0837    0.6356 C   0  0  0  0  0  0  0  0  0  0  0  0
    1.6390   -4.1566    1.2608 H   0  0  0  0  0  0  0  0  0  0  0  0
    3.1673   -3.9652    0.3673 H   0  0  0  0  0  0  0  0  0  0  0  0
    1.6500   -4.1036   -0.5198 H   0  0  0  0  0  0  0  0  0  0  0  0
    3.7756   -1.8519    1.5165 H   0  0  0  0  0  0  0  0  0  0  0  0
    3.4847    0.5562    1.6548 H   0  0  0  0  0  0  0  0  0  0  0  0
    0.0369   -2.2321   -0.5507 H   0  0  0  0  0  0  0  0  0  0  0  0
   -0.3152    0.8321   -1.5585 H   0  0  0  0  0  0  0  0  0  0  0  0
   -1.5558   -0.2620   -2.9365 H   0  0  0  0  0  0  0  0  0  0  0  0
   -3.4399   -1.7407   -3.4760 H   0  0  0  0  0  0  0  0  0  0  0  0
   -4.7751   -2.7729   -1.6597 H   0  0  0  0  0  0  0  0  0  0  0  0
   -4.2005   -2.3097    0.7133 H   0  0  0  0  0  0  0  0  0  0  0  0
   -1.4465    1.4497    1.2315 H   0  0  0  0  0  0  0  0  0  0  0  0
   -1.8668    2.2359   -0.2909 H   0  0  0  0  0  0  0  0  0  0  0  0
   -1.0350    4.4608    0.3847 H   0  0  0  0  0  0  0  0  0  0  0  0
    2.9821    5.0716    0.9878 H   0  0  0  0  0  0  0  0  0  0  0  0
    3.4758    2.6604    0.9474 H   0  0  0  0  0  0  0  0  0  0  0  0
  1  2  1  0
  2  3  2  0
  3  4  1  0
  4  5  2  0
  5  6  1  0
  6  7  2  0
  6  8  1  0
  8  9  1  0
  9 10  1  0
 10 11  2  0
 11 12  1  0
 12 13  2  0
 13 14  1  0
 14 15  2  0
  8 16  1  0
 16 17  1  0
 17 18  2  0
 18 19  1  0
 19 20  2  0
 20 21  1  0
 21 22  2  0
  7  2  1  0
 14  9  1  0
 22 17  1  0
 22  5  1  0
  1 23  1  0
  1 24  1  0
  1 25  1  0
  3 26  1  0
  4 27  1  0
  7 28  1  0
  8 29  1  0
 10 30  1  0
 11 31  1  0
 12 32  1  0
 13 33  1  0
 16 34  1  0
 16 35  1  0
 18 36  1  0
 20 37  1  0
 21 38  1  0
M  END
>  <smiles>
Cc1ccc2c(c1)C(n1ccccc1=O)Cc1cnccc1-2

$$$$
