mol_1c70d09ed673
     RDKit          3D

 42 43  0  0  0  0  0  0  0  0999 V2000
   -2.9325   -2.3028   -1.1113 C   0  0  0  0  0  0  0  0  0  0  0  0
   -2.3805   -0.9897   -0.6357 C   0  0  0  0  0  0  0  0  0  0  0  0
   -1.0996   -0.7623   -1.0095 N   0  0  0  0  0  0  0  0  0  0  0  0
   -0.5394    0.3873   -0.6120 C   0  0  0  0  0  0  0  0  0  0  0  0
    0.8930    0.6362   -0.9944 C   0  0  0  0  0  0  0  0  0  0  0  0
    1.8505    0.1038    0.0707 C   0  0  0  0  0  0  0  0  0  0  0  0
    3.3063    0.3535   -0.3240 C   0  0  0  0  0  0  0  0  0  0  0  0
    4.2910   -0.1607    0.7165 C   0  0  0  0  0  0  0  0  0  0  0  0
    3.8962   -0.7051    1.7480 O   0  0  0  0  0  0  0  0  0  0  0  0
    5.6436    0.0154    0.4436 N   0  0  0  0  0  0  0  0  0  0  0  0
    6.6226   -0.4627    1.4076 C   0  0  0  0  0  0  0  0  0  0  0  0
    6.1895    0.6478   -0.7486 C   0  0  0  0  0  0  0  0  0  0  0  0
   -1.1583    1.3184    0.1272 N   0  0  0  0  0  0  0  0  0  0  0  0
   -2.4222    1.0827    0.4912 C   0  0  0  0  0  0  0  0  0  0  0  0
   -3.0458    2.0494    1.2685 C   0  0  0  0  0  0  0  0  0  0  0  0
   -4.3559    1.9058    1.7236 C   0  0  0  0  0  0  0  0  0  0  0  0
   -5.0765    0.7716    1.3840 C   0  0  0  0  0  0  0  0  0  0  0  0
   -4.4859   -0.2022    0.5742 C   0  0  0  0  0  0  0  0  0  0  0  0
   -5.1964   -1.3344    0.2662 O   0  0  0  0  0  0  0  0  0  0  0  0
   -6.3311   -1.0638   -0.5526 C   0  0  0  0  0  0  0  0  0  0  0  0
   -6.0253   -0.2175   -1.5588 F   0  0  0  0  0  0  0  0  0  0  0  0
   -7.3418   -0.5495    0.1789 F   0  0  0  0  0  0  0  0  0  0  0  0
   -6.7535   -2.2270   -1.0951 F   0  0  0  0  0  0  0  0  0  0  0  0
   -3.1311   -0.0768    0.1358 C   0  0  0  0  0  0  0  0  0  0  0  0
   -2.1731   -2.8632   -1.6682 H   0  0  0  0  0  0  0  0  0  0  0  0
   -3.2365   -2.9245   -0.2640 H   0  0  0  0  0  0  0  0  0  0  0  0
   -3.7780   -2.1433   -1.7868 H   0  0  0  0  0  0  0  0  0  0  0  0
    1.0954    0.1565   -1.9596 H   0  0  0  0  0  0  0  0  0  0  0  0
    1.0444    1.7131   -1.1357 H   0  0  0  0  0  0  0  0  0  0  0  0
    1.6862   -0.9716    0.2181 H   0  0  0  0  0  0  0  0  0  0  0  0
    1.6406    0.5832    1.0357 H   0  0  0  0  0  0  0  0  0  0  0  0
    3.5130   -0.1503   -1.2751 H   0  0  0  0  0  0  0  0  0  0  0  0
    3.4664    1.4305   -0.4488 H   0  0  0  0  0  0  0  0  0  0  0  0
    7.2288    0.3846    1.7419 H   0  0  0  0  0  0  0  0  0  0  0  0
    6.1592   -0.9283    2.2808 H   0  0  0  0  0  0  0  0  0  0  0  0
    7.2668   -1.1990    0.9177 H   0  0  0  0  0  0  0  0  0  0  0  0
    5.4233    0.9973   -1.4401 H   0  0  0  0  0  0  0  0  0  0  0  0
    6.7978    1.5040   -0.4415 H   0  0  0  0  0  0  0  0  0  0  0  0
    6.8233   -0.0772   -1.2680 H   0  0  0  0  0  0  0  0  0  0  0  0
   -2.4857    2.9422    1.5419 H   0  0  0  0  0  0  0  0  0  0  0  0
   -4.8020    2.6760    2.3478 H   0  0  0  0  0  0  0  0  0  0  0  0
   -6.0867    0.6527    1.7677 H   0  0  0  0  0  0  0  0  0  0  0  0
  1  2  1  0
  2  3  1  0
  3  4  2  0
  4  5  1  0
  5  6  1  0
  6  7  1  0
  7  8  1  0
  8  9  2  0
  8 10  1  0
 10 11  1  0
 10 12  1  0
  4 13  1  0
 13 14  2  0
 14 15  1  0
 15 16  2  0
 16 17  1  0
 17 18  2  0
 18 19  1  0
 19 20  1  0
 20 21  1  0
 20 22  1  0
 20 23  1  0
 18 24  1  0
 24  2  2  0
 24 14  1  0
  1 25  1  0
  1 26  1  0
  1 27  1  0
  5 28  1  0
  5 29  1  0
  6 30  1  0
  6 31  1  0
  7 32  1  0
  7 33  1  0
 11 34  1  0
 11 35  1  0
 11 36  1  0
 12 37  1  0
 12 38  1  0
 12 39  1  0
 15 40  1  0
 16 41  1  0
 17 42  1  0
M  END
>  <smiles>
Cc1nc(CCCC(=O)N(C)C)nc2cccc(OC(F)(F)F)c12

$$$$
