mol_c808d47ad148
     RDKit          3D

 55 58  0  0  0  0  0  0  0  0999 V2000
    3.6997    3.1596   -0.1647 C   0  0  0  0  0  0  0  0  0  0  0  0
    3.7412    1.7319   -0.0027 N   0  0  0  0  0  0  0  0  0  0  0  0
    4.7723    1.1030    0.6594 C   0  0  0  0  0  0  0  0  0  0  0  0
    5.7520    1.7088    1.0910 O   0  0  0  0  0  0  0  0  0  0  0  0
    4.6712   -0.4393    0.7287 C   0  0  0  0  0  0  0  0  0  0  0  0
    5.7004   -1.0607   -0.2202 C   0  0  0  0  0  0  0  0  0  0  0  0
    4.9193   -1.2196   -1.5218 C   0  0  0  0  0  0  0  0  0  0  0  0
    3.5390   -1.6382   -1.0400 C   0  0  0  0  0  0  0  0  0  0  0  0
    3.3945   -1.0024    0.2637 N   0  0  0  0  0  0  0  0  0  0  0  0
    2.2732   -0.9674    1.0697 C   0  0  0  0  0  0  0  0  0  0  0  0
    2.2300   -0.3444    2.1257 O   0  0  0  0  0  0  0  0  0  0  0  0
    1.0443   -1.6437    0.6041 C   0  0  0  0  0  0  0  0  0  0  0  0
    1.0164   -3.0167    0.3847 C   0  0  0  0  0  0  0  0  0  0  0  0
   -0.1643   -3.6122   -0.0541 C   0  0  0  0  0  0  0  0  0  0  0  0
   -1.3279   -2.8504   -0.2593 C   0  0  0  0  0  0  0  0  0  0  0  0
   -2.4963   -3.4789   -0.7073 C   0  0  0  0  0  0  0  0  0  0  0  0
   -3.6647   -2.7511   -0.9101 C   0  0  0  0  0  0  0  0  0  0  0  0
   -3.6908   -1.3754   -0.6585 C   0  0  0  0  0  0  0  0  0  0  0  0
   -2.5315   -0.7161   -0.2068 C   0  0  0  0  0  0  0  0  0  0  0  0
   -1.3268   -1.4523   -0.0053 C   0  0  0  0  0  0  0  0  0  0  0  0
   -0.1139   -0.8748    0.4380 C   0  0  0  0  0  0  0  0  0  0  0  0
   -2.6185    0.6650    0.0577 N   0  0  0  0  0  0  0  0  0  0  0  0
   -3.7469    1.4463   -0.0717 C   0  0  0  0  0  0  0  0  0  0  0  0
   -3.7072    2.8029    0.2657 N   0  0  0  0  0  0  0  0  0  0  0  0
   -4.7316    3.7611   -0.1543 C   0  0  0  0  0  0  0  0  0  0  0  0
   -2.6608    3.3691    1.1165 C   0  0  0  0  0  0  0  0  0  0  0  0
   -4.8729    0.8598   -0.5237 C   0  0  0  0  0  0  0  0  0  0  0  0
   -4.9562   -0.5852   -0.8915 C   0  0  0  0  0  0  0  0  0  0  0  0
   -6.0178   -1.1525   -0.1247 O   0  0  0  0  0  0  0  0  0  0  0  0
    3.4299    3.6141    0.7921 H   0  0  0  0  0  0  0  0  0  0  0  0
    4.6785    3.5304   -0.4807 H   0  0  0  0  0  0  0  0  0  0  0  0
    2.9469    3.4041   -0.9175 H   0  0  0  0  0  0  0  0  0  0  0  0
    2.9372    1.1703   -0.2511 H   0  0  0  0  0  0  0  0  0  0  0  0
    4.8436   -0.7309    1.7709 H   0  0  0  0  0  0  0  0  0  0  0  0
    5.9966   -2.0501    0.1497 H   0  0  0  0  0  0  0  0  0  0  0  0
    6.6052   -0.4605   -0.3537 H   0  0  0  0  0  0  0  0  0  0  0  0
    5.3668   -1.9513   -2.2000 H   0  0  0  0  0  0  0  0  0  0  0  0
    4.8628   -0.2581   -2.0456 H   0  0  0  0  0  0  0  0  0  0  0  0
    3.4980   -2.7230   -0.9026 H   0  0  0  0  0  0  0  0  0  0  0  0
    2.7365   -1.3286   -1.7154 H   0  0  0  0  0  0  0  0  0  0  0  0
    1.8954   -3.6280    0.5673 H   0  0  0  0  0  0  0  0  0  0  0  0
   -0.1741   -4.6871   -0.2270 H   0  0  0  0  0  0  0  0  0  0  0  0
   -2.5099   -4.5493   -0.9037 H   0  0  0  0  0  0  0  0  0  0  0  0
   -4.5627   -3.2575   -1.2592 H   0  0  0  0  0  0  0  0  0  0  0  0
   -0.0496    0.1850    0.6657 H   0  0  0  0  0  0  0  0  0  0  0  0
   -1.7878    1.1595    0.3294 H   0  0  0  0  0  0  0  0  0  0  0  0
   -5.6117    3.6822    0.4921 H   0  0  0  0  0  0  0  0  0  0  0  0
   -5.0325    3.5891   -1.1937 H   0  0  0  0  0  0  0  0  0  0  0  0
   -4.3637    4.7922   -0.1048 H   0  0  0  0  0  0  0  0  0  0  0  0
   -2.9796    4.3072    1.5844 H   0  0  0  0  0  0  0  0  0  0  0  0
   -1.7627    3.5707    0.5238 H   0  0  0  0  0  0  0  0  0  0  0  0
   -2.4018    2.6843    1.9318 H   0  0  0  0  0  0  0  0  0  0  0  0
   -5.7944    1.4174   -0.6336 H   0  0  0  0  0  0  0  0  0  0  0  0
   -5.2302   -0.6596   -1.9504 H   0  0  0  0  0  0  0  0  0  0  0  0
   -5.6623   -1.2487    0.7765 H   0  0  0  0  0  0  0  0  0  0  0  0
  1  2  1  0
  2  3  1  0
  3  4  2  0
  3  5  1  0
  5  6  1  0
  6  7  1  0
  7  8  1  0
  8  9  1  0
  9 10  1  0
 10 11  2  0
 10 12  1  0
 12 13  2  0
 13 14  1  0
 14 15  2  0
 15 16  1  0
 16 17  2  0
 17 18  1  0
 18 19  2  0
 19 20  1  0
 20 21  2  0
 19 22  1  0
 22 23  1  0
 23 24  1  0
 24 25  1  0
 24 26  1  0
 23 27  2  0
 27 28  1  0
 28 29  1  0
  9  5  1  0
 21 12  1  0
 20 15  1  0
 28 18  1  0
  1 30  1  0
  1 31  1  0
  1 32  1  0
  2 33  1  0
  5 34  1  0
  6 35  1  0
  6 36  1  0
  7 37  1  0
  7 38  1  0
  8 39  1  0
  8 40  1  0
 13 41  1  0
 14 42  1  0
 16 43  1  0
 17 44  1  0
 21 45  1  0
 22 46  1  0
 25 47  1  0
 25 48  1  0
 25 49  1  0
 26 50  1  0
 26 51  1  0
 26 52  1  0
 27 53  1  0
 28 54  1  0
 29 55  1  0
M  END
>  <smiles>
CNC(=O)C1CCCN1C(=O)c1ccc2ccc3c(c2c1)NC(N(C)C)=CC3O

$$$$
