mol_9938da8087d5
     RDKit          3D

 55 58  0  0  0  0  0  0  0  0999 V2000
    7.7969   -0.6012   -0.9422 C   0  0  0  0  0  0  0  0  0  0  0  0
    6.3920   -0.4346   -1.3088 N   0  0  0  0  0  0  0  0  0  0  0  0
    6.0861    0.9895   -1.5675 C   0  0  0  0  0  0  0  0  0  0  0  0
    4.6038    1.2168   -1.9213 C   0  0  0  0  0  0  0  0  0  0  0  0
    3.7149    0.6339   -0.9166 N   0  0  0  0  0  0  0  0  0  0  0  0
    2.5839    1.3357   -0.5271 C   0  0  0  0  0  0  0  0  0  0  0  0
    2.2403    2.4106   -1.0132 O   0  0  0  0  0  0  0  0  0  0  0  0
    1.7304    0.7738    0.5361 C   0  0  0  0  0  0  0  0  0  0  0  0
    2.2183    0.6468    1.8363 C   0  0  0  0  0  0  0  0  0  0  0  0
    1.3835    0.1318    2.8206 C   0  0  0  0  0  0  0  0  0  0  0  0
    0.0699   -0.2370    2.5023 C   0  0  0  0  0  0  0  0  0  0  0  0
   -0.4478   -0.0978    1.2035 C   0  0  0  0  0  0  0  0  0  0  0  0
   -1.7718   -0.4335    0.8925 N   0  0  0  0  0  0  0  0  0  0  0  0
   -2.5428    0.4775    0.0306 C   0  0  0  0  0  0  0  0  0  0  0  0
   -3.9705   -0.0501    0.1836 C   0  0  0  0  0  0  0  0  0  0  0  0
   -5.0883    0.4536   -0.3794 C   0  0  0  0  0  0  0  0  0  0  0  0
   -5.0572    1.6514   -1.2116 C   0  0  0  0  0  0  0  0  0  0  0  0
   -6.0700    2.0374   -1.9984 C   0  0  0  0  0  0  0  0  0  0  0  0
   -7.2820    1.1979   -2.1355 C   0  0  0  0  0  0  0  0  0  0  0  0
   -8.2156    1.5921   -2.8296 O   0  0  0  0  0  0  0  0  0  0  0  0
   -7.2799   -0.1586   -1.4766 C   0  0  0  0  0  0  0  0  0  0  0  0
   -6.4767   -0.1260   -0.1826 C   0  0  0  0  0  0  0  0  0  0  0  0
   -3.8776   -1.2165    1.0505 C   0  0  0  0  0  0  0  0  0  0  0  0
   -2.6050   -1.4095    1.4361 C   0  0  0  0  0  0  0  0  0  0  0  0
   -2.1832   -2.5897    2.2336 C   0  0  0  0  0  0  0  0  0  0  0  0
   -1.0549   -3.0265    2.3743 O   0  0  0  0  0  0  0  0  0  0  0  0
   -3.2224   -3.2025    2.8375 O   0  0  0  0  0  0  0  0  0  0  0  0
    0.4098    0.4283    0.2256 C   0  0  0  0  0  0  0  0  0  0  0  0
    4.0180   -0.7634   -0.5833 C   0  0  0  0  0  0  0  0  0  0  0  0
    5.5085   -0.9522   -0.2430 C   0  0  0  0  0  0  0  0  0  0  0  0
    8.0559   -0.0546   -0.0282 H   0  0  0  0  0  0  0  0  0  0  0  0
    8.0297   -1.6606   -0.7877 H   0  0  0  0  0  0  0  0  0  0  0  0
    8.4483   -0.2503   -1.7501 H   0  0  0  0  0  0  0  0  0  0  0  0
    6.3358    1.5941   -0.6852 H   0  0  0  0  0  0  0  0  0  0  0  0
    6.6993    1.3530   -2.4007 H   0  0  0  0  0  0  0  0  0  0  0  0
    4.3650    0.7410   -2.8803 H   0  0  0  0  0  0  0  0  0  0  0  0
    4.4154    2.2900   -2.0306 H   0  0  0  0  0  0  0  0  0  0  0  0
    3.2328    0.9496    2.0787 H   0  0  0  0  0  0  0  0  0  0  0  0
    1.7421    0.0214    3.8408 H   0  0  0  0  0  0  0  0  0  0  0  0
   -0.5595   -0.6118    3.3055 H   0  0  0  0  0  0  0  0  0  0  0  0
   -2.4720    1.5104    0.3912 H   0  0  0  0  0  0  0  0  0  0  0  0
   -2.2206    0.4033   -1.0139 H   0  0  0  0  0  0  0  0  0  0  0  0
   -4.1674    2.2762   -1.1927 H   0  0  0  0  0  0  0  0  0  0  0  0
   -6.0363    2.9423   -2.5931 H   0  0  0  0  0  0  0  0  0  0  0  0
   -8.3142   -0.4433   -1.2552 H   0  0  0  0  0  0  0  0  0  0  0  0
   -6.8631   -0.8846   -2.1836 H   0  0  0  0  0  0  0  0  0  0  0  0
   -7.0036    0.4946    0.5552 H   0  0  0  0  0  0  0  0  0  0  0  0
   -6.4508   -1.1412    0.2240 H   0  0  0  0  0  0  0  0  0  0  0  0
   -4.7044   -1.8542    1.3222 H   0  0  0  0  0  0  0  0  0  0  0  0
   -2.7944   -3.9473    3.3088 H   0  0  0  0  0  0  0  0  0  0  0  0
    0.0735    0.5555   -0.7998 H   0  0  0  0  0  0  0  0  0  0  0  0
    3.7583   -1.3609   -1.4664 H   0  0  0  0  0  0  0  0  0  0  0  0
    3.4006   -1.1332    0.2372 H   0  0  0  0  0  0  0  0  0  0  0  0
    5.6959   -2.0226   -0.0968 H   0  0  0  0  0  0  0  0  0  0  0  0
    5.7232   -0.4452    0.7073 H   0  0  0  0  0  0  0  0  0  0  0  0
  1  2  1  0
  2  3  1  0
  3  4  1  0
  4  5  1  0
  5  6  1  0
  6  7  2  0
  6  8  1  0
  8  9  1  0
  9 10  2  0
 10 11  1  0
 11 12  2  0
 12 13  1  0
 13 14  1  0
 14 15  1  0
 15 16  2  3
 16 17  1  0
 17 18  2  0
 18 19  1  0
 19 20  2  0
 19 21  1  0
 21 22  1  0
 15 23  1  0
 23 24  2  0
 24 25  1  0
 25 26  2  0
 25 27  1  0
 12 28  1  0
  5 29  1  0
 29 30  1  0
 30  2  1  0
 28  8  2  0
 24 13  1  0
 22 16  1  0
  1 31  1  0
  1 32  1  0
  1 33  1  0
  3 34  1  0
  3 35  1  0
  4 36  1  0
  4 37  1  0
  9 38  1  0
 10 39  1  0
 11 40  1  0
 14 41  1  0
 14 42  1  0
 17 43  1  0
 18 44  1  0
 21 45  1  0
 21 46  1  0
 22 47  1  0
 22 48  1  0
 23 49  1  0
 27 50  1  0
 28 51  1  0
 29 52  1  0
 29 53  1  0
 30 54  1  0
 30 55  1  0
M  END
>  <smiles>
CN1CCN(C(=O)c2cccc(N3CC(=C4C=CC(=O)CC4)C=C3C(=O)O)c2)CC1

$$$$
