mol_f6cc6846779e
     RDKit          3D

 38 39  0  0  0  0  0  0  0  0999 V2000
   -4.6384   -2.9558    3.0967 C   0  0  0  0  0  0  0  0  0  0  0  0
   -5.4152   -2.1783    2.1955 O   0  0  0  0  0  0  0  0  0  0  0  0
   -4.7351   -1.3714    1.3246 C   0  0  0  0  0  0  0  0  0  0  0  0
   -5.5465   -0.6319    0.4642 C   0  0  0  0  0  0  0  0  0  0  0  0
   -4.9796    0.2296   -0.4725 C   0  0  0  0  0  0  0  0  0  0  0  0
   -3.5917    0.3582   -0.5557 C   0  0  0  0  0  0  0  0  0  0  0  0
   -2.7639   -0.3732    0.2964 C   0  0  0  0  0  0  0  0  0  0  0  0
   -1.3558   -0.3015    0.2775 N   0  0  0  0  0  0  0  0  0  0  0  0
   -0.5472    0.4627   -0.5400 C   0  0  0  0  0  0  0  0  0  0  0  0
   -0.9380    1.2305   -1.4138 O   0  0  0  0  0  0  0  0  0  0  0  0
    0.9348    0.3240   -0.3209 C   0  0  0  0  0  0  0  0  0  0  0  0
    1.7773    1.0937   -1.1432 C   0  0  0  0  0  0  0  0  0  0  0  0
    3.1693    1.0387   -1.0214 C   0  0  0  0  0  0  0  0  0  0  0  0
    3.8489    1.8445   -1.8910 O   0  0  0  0  0  0  0  0  0  0  0  0
    5.2787    1.8363   -1.8198 C   0  0  0  0  0  0  0  0  0  0  0  0
    5.8735    2.7836   -2.8511 C   0  0  0  0  0  0  0  0  0  0  0  0
    7.2268    2.7650   -2.7715 F   0  0  0  0  0  0  0  0  0  0  0  0
    5.5417    2.4299   -4.1114 F   0  0  0  0  0  0  0  0  0  0  0  0
    5.4783    4.0594   -2.6511 F   0  0  0  0  0  0  0  0  0  0  0  0
    3.7372    0.2022   -0.0634 C   0  0  0  0  0  0  0  0  0  0  0  0
    2.9189   -0.5718    0.7648 C   0  0  0  0  0  0  0  0  0  0  0  0
    1.5277   -0.5118    0.6374 C   0  0  0  0  0  0  0  0  0  0  0  0
    0.7622   -1.2880    1.4703 O   0  0  0  0  0  0  0  0  0  0  0  0
   -3.3462   -1.2390    1.2372 C   0  0  0  0  0  0  0  0  0  0  0  0
   -3.9979   -3.6620    2.5582 H   0  0  0  0  0  0  0  0  0  0  0  0
   -5.3276   -3.5378    3.7163 H   0  0  0  0  0  0  0  0  0  0  0  0
   -4.0502   -2.3168    3.7637 H   0  0  0  0  0  0  0  0  0  0  0  0
   -6.6277   -0.7276    0.5241 H   0  0  0  0  0  0  0  0  0  0  0  0
   -5.6162    0.8036   -1.1406 H   0  0  0  0  0  0  0  0  0  0  0  0
   -3.1883    1.0393   -1.2981 H   0  0  0  0  0  0  0  0  0  0  0  0
   -0.8646   -0.8847    0.9497 H   0  0  0  0  0  0  0  0  0  0  0  0
    1.3443    1.7519   -1.8964 H   0  0  0  0  0  0  0  0  0  0  0  0
    5.6018    2.1599   -0.8235 H   0  0  0  0  0  0  0  0  0  0  0  0
    5.6537    0.8257   -2.0192 H   0  0  0  0  0  0  0  0  0  0  0  0
    4.8115    0.1255    0.0689 H   0  0  0  0  0  0  0  0  0  0  0  0
    3.3886   -1.2157    1.5037 H   0  0  0  0  0  0  0  0  0  0  0  0
    1.3516   -1.7930    2.0594 H   0  0  0  0  0  0  0  0  0  0  0  0
   -2.6969   -1.8041    1.8959 H   0  0  0  0  0  0  0  0  0  0  0  0
  1  2  1  0
  2  3  1  0
  3  4  1  0
  4  5  2  0
  5  6  1  0
  6  7  2  0
  7  8  1  0
  8  9  1  0
  9 10  2  0
  9 11  1  0
 11 12  1  0
 12 13  2  0
 13 14  1  0
 14 15  1  0
 15 16  1  0
 16 17  1  0
 16 18  1  0
 16 19  1  0
 13 20  1  0
 20 21  2  0
 21 22  1  0
 22 23  1  0
  7 24  1  0
 24  3  2  0
 22 11  2  0
  1 25  1  0
  1 26  1  0
  1 27  1  0
  4 28  1  0
  5 29  1  0
  6 30  1  0
  8 31  1  0
 12 32  1  0
 15 33  1  0
 15 34  1  0
 20 35  1  0
 21 36  1  0
 23 37  1  0
 24 38  1  0
M  END
>  <smiles>
COc1cccc(NC(=O)c2cc(OCC(F)(F)F)ccc2O)c1

$$$$
