mol_101822d1309b
     RDKit          3D

 50 54  0  0  0  0  0  0  0  0999 V2000
   -5.1766    1.3553   -0.5464 C   0  0  0  0  0  0  0  0  0  0  0  0
   -4.7935    0.4524    0.6222 C   0  0  0  0  0  0  0  0  0  0  0  0
   -4.4872   -0.9404    0.1768 C   0  0  0  0  0  0  0  0  0  0  0  0
   -3.2433   -1.4250    0.0626 C   0  0  0  0  0  0  0  0  0  0  0  0
   -3.0290   -2.7336   -0.3016 N   0  0  0  0  0  0  0  0  0  0  0  0
   -1.7841   -3.4732   -0.3650 C   0  0  0  0  0  0  0  0  0  0  0  0
   -0.7932   -2.8089   -1.3091 C   0  0  0  0  0  0  0  0  0  0  0  0
   -0.1602   -1.6574   -0.7261 N   0  0  0  0  0  0  0  0  0  0  0  0
    1.2082   -1.3624   -0.8527 C   0  0  0  0  0  0  0  0  0  0  0  0
    2.0408   -2.0364   -1.4379 O   0  0  0  0  0  0  0  0  0  0  0  0
    1.4174   -0.1431   -0.1766 N   0  0  0  0  0  0  0  0  0  0  0  0
    2.6860    0.5649   -0.0799 C   0  0  0  0  0  0  0  0  0  0  0  0
    3.0932    1.1562   -1.4397 C   0  0  0  0  0  0  0  0  0  0  0  0
    4.5266    1.6705   -1.4029 C   0  0  0  0  0  0  0  0  0  0  0  0
    5.5346    0.5680   -1.0760 C   0  0  0  0  0  0  0  0  0  0  0  0
    4.9129   -0.6619   -0.4163 C   0  0  0  0  0  0  0  0  0  0  0  0
    3.7986   -0.2945    0.5590 C   0  0  0  0  0  0  0  0  0  0  0  0
    0.1813    0.3057    0.3246 C   0  0  0  0  0  0  0  0  0  0  0  0
   -0.1110    1.4537    1.0246 C   0  0  0  0  0  0  0  0  0  0  0  0
   -1.4435    1.6514    1.3962 C   0  0  0  0  0  0  0  0  0  0  0  0
   -1.7383    2.8910    2.1390 C   0  0  0  0  0  0  0  0  0  0  0  0
   -1.2902    3.9915    1.8744 O   0  0  0  0  0  0  0  0  0  0  0  0
   -2.4764    2.6676    3.2380 O   0  0  0  0  0  0  0  0  0  0  0  0
   -2.4539    0.7271    1.0316 C   0  0  0  0  0  0  0  0  0  0  0  0
   -2.1475   -0.4723    0.3450 C   0  0  0  0  0  0  0  0  0  0  0  0
   -0.8081   -0.6372   -0.0085 C   0  0  0  0  0  0  0  0  0  0  0  0
   -3.7411    1.0645    1.3727 O   0  0  0  0  0  0  0  0  0  0  0  0
   -4.3432    1.4752   -1.2481 H   0  0  0  0  0  0  0  0  0  0  0  0
   -6.0362    0.9576   -1.0956 H   0  0  0  0  0  0  0  0  0  0  0  0
   -5.4278    2.3585   -0.1850 H   0  0  0  0  0  0  0  0  0  0  0  0
   -5.6481    0.3993    1.3074 H   0  0  0  0  0  0  0  0  0  0  0  0
   -5.3432   -1.5712   -0.0410 H   0  0  0  0  0  0  0  0  0  0  0  0
   -3.8667   -3.2853   -0.4632 H   0  0  0  0  0  0  0  0  0  0  0  0
   -1.3638   -3.5911    0.6407 H   0  0  0  0  0  0  0  0  0  0  0  0
   -2.0093   -4.4780   -0.7399 H   0  0  0  0  0  0  0  0  0  0  0  0
   -1.2764   -2.4911   -2.2408 H   0  0  0  0  0  0  0  0  0  0  0  0
   -0.0149   -3.5312   -1.5801 H   0  0  0  0  0  0  0  0  0  0  0  0
    2.5404    1.4076    0.6055 H   0  0  0  0  0  0  0  0  0  0  0  0
    2.4108    1.9741   -1.7018 H   0  0  0  0  0  0  0  0  0  0  0  0
    2.9962    0.4112   -2.2391 H   0  0  0  0  0  0  0  0  0  0  0  0
    4.7861    2.1343   -2.3614 H   0  0  0  0  0  0  0  0  0  0  0  0
    4.6027    2.4626   -0.6471 H   0  0  0  0  0  0  0  0  0  0  0  0
    6.3120    0.9843   -0.4235 H   0  0  0  0  0  0  0  0  0  0  0  0
    6.0470    0.2525   -1.9930 H   0  0  0  0  0  0  0  0  0  0  0  0
    5.6926   -1.2302    0.1040 H   0  0  0  0  0  0  0  0  0  0  0  0
    4.5179   -1.3255   -1.1936 H   0  0  0  0  0  0  0  0  0  0  0  0
    3.3896   -1.2023    1.0180 H   0  0  0  0  0  0  0  0  0  0  0  0
    4.2481    0.2788    1.3812 H   0  0  0  0  0  0  0  0  0  0  0  0
    0.6439    2.1864    1.2837 H   0  0  0  0  0  0  0  0  0  0  0  0
   -2.5805    3.5497    3.6487 H   0  0  0  0  0  0  0  0  0  0  0  0
  1  2  1  0
  2  3  1  0
  3  4  2  0
  4  5  1  0
  5  6  1  0
  6  7  1  0
  7  8  1  0
  8  9  1  0
  9 10  2  0
  9 11  1  0
 11 12  1  0
 12 13  1  0
 13 14  1  0
 14 15  1  0
 15 16  1  0
 16 17  1  0
 11 18  1  0
 18 19  1  0
 19 20  2  0
 20 21  1  0
 21 22  2  0
 21 23  1  0
 20 24  1  0
 24 25  2  0
 25 26  1  0
 24 27  1  0
 27  2  1  0
 25  4  1  0
 26  8  1  0
 17 12  1  0
 26 18  2  0
  1 28  1  0
  1 29  1  0
  1 30  1  0
  2 31  1  0
  3 32  1  0
  5 33  1  0
  6 34  1  0
  6 35  1  0
  7 36  1  0
  7 37  1  0
 12 38  1  0
 13 39  1  0
 13 40  1  0
 14 41  1  0
 14 42  1  0
 15 43  1  0
 15 44  1  0
 16 45  1  0
 16 46  1  0
 17 47  1  0
 17 48  1  0
 19 49  1  0
 23 50  1  0
M  END
>  <smiles>
CC1C=C2NCCn3c(=O)n(C4CCCCC4)c4cc(C(=O)O)c(c2c43)O1

$$$$
