mol_1883fb7b09ba
     RDKit          3D

 40 42  0  0  0  0  0  0  0  0999 V2000
   -1.9906    4.3650    1.3428 C   0  0  0  0  0  0  0  0  0  0  0  0
   -1.4272    3.0431    1.1126 N   0  0  0  0  0  0  0  0  0  0  0  0
   -0.1111    2.7391    1.3746 C   0  0  0  0  0  0  0  0  0  0  0  0
    0.4087    1.5160    1.2232 C   0  0  0  0  0  0  0  0  0  0  0  0
   -0.4170    0.4080    0.7692 C   0  0  0  0  0  0  0  0  0  0  0  0
   -1.7286    0.6291    0.4989 C   0  0  0  0  0  0  0  0  0  0  0  0
   -2.6048   -0.3400    0.0446 N   0  0  0  0  0  0  0  0  0  0  0  0
   -2.1285   -1.5377   -0.1199 C   0  0  0  0  0  0  0  0  0  0  0  0
   -3.0017   -2.6294   -0.6671 C   0  0  0  0  0  0  0  0  0  0  0  0
   -2.5292   -3.1117   -2.0023 C   0  0  0  0  0  0  0  0  0  0  0  0
   -1.6857   -2.5975   -2.7174 O   0  0  0  0  0  0  0  0  0  0  0  0
   -3.1803   -4.2227   -2.4026 O   0  0  0  0  0  0  0  0  0  0  0  0
   -0.6997   -1.9217    0.2146 C   0  0  0  0  0  0  0  0  0  0  0  0
   -0.3790   -3.1003    0.1202 O   0  0  0  0  0  0  0  0  0  0  0  0
    0.1190   -0.8740    0.6244 N   0  0  0  0  0  0  0  0  0  0  0  0
    1.5197   -1.1974    0.8903 C   0  0  0  0  0  0  0  0  0  0  0  0
    2.4762   -0.7506   -0.1970 C   0  0  0  0  0  0  0  0  0  0  0  0
    2.2078   -0.9964   -1.5523 C   0  0  0  0  0  0  0  0  0  0  0  0
    3.1121   -0.6005   -2.5396 C   0  0  0  0  0  0  0  0  0  0  0  0
    4.3010    0.0329   -2.1854 C   0  0  0  0  0  0  0  0  0  0  0  0
    4.5905    0.2657   -0.8430 C   0  0  0  0  0  0  0  0  0  0  0  0
    3.6873   -0.1289    0.1460 C   0  0  0  0  0  0  0  0  0  0  0  0
   -2.3684    2.0099    0.6566 C   0  0  0  0  0  0  0  0  0  0  0  0
   -2.2716    4.4747    2.3952 H   0  0  0  0  0  0  0  0  0  0  0  0
   -2.8827    4.5310    0.7293 H   0  0  0  0  0  0  0  0  0  0  0  0
   -1.2685    5.1494    1.0915 H   0  0  0  0  0  0  0  0  0  0  0  0
    0.5005    3.5712    1.7143 H   0  0  0  0  0  0  0  0  0  0  0  0
    1.4581    1.3788    1.4423 H   0  0  0  0  0  0  0  0  0  0  0  0
   -4.0256   -2.2568   -0.7760 H   0  0  0  0  0  0  0  0  0  0  0  0
   -3.0011   -3.4624    0.0436 H   0  0  0  0  0  0  0  0  0  0  0  0
   -2.7782   -4.4360   -3.2711 H   0  0  0  0  0  0  0  0  0  0  0  0
    1.7932   -0.7723    1.8637 H   0  0  0  0  0  0  0  0  0  0  0  0
    1.6465   -2.2811    1.0043 H   0  0  0  0  0  0  0  0  0  0  0  0
    1.2917   -1.5004   -1.8549 H   0  0  0  0  0  0  0  0  0  0  0  0
    2.8865   -0.7909   -3.5858 H   0  0  0  0  0  0  0  0  0  0  0  0
    5.0034    0.3395   -2.9558 H   0  0  0  0  0  0  0  0  0  0  0  0
    5.5220    0.7524   -0.5659 H   0  0  0  0  0  0  0  0  0  0  0  0
    3.9373    0.0548    1.1885 H   0  0  0  0  0  0  0  0  0  0  0  0
   -3.1925    1.9346    1.3770 H   0  0  0  0  0  0  0  0  0  0  0  0
   -2.7895    2.3136   -0.3099 H   0  0  0  0  0  0  0  0  0  0  0  0
  1  2  1  0
  2  3  1  0
  3  4  2  0
  4  5  1  0
  5  6  2  0
  6  7  1  0
  7  8  2  0
  8  9  1  0
  9 10  1  0
 10 11  2  0
 10 12  1  0
  8 13  1  0
 13 14  2  0
 13 15  1  0
 15 16  1  0
 16 17  1  0
 17 18  2  0
 18 19  1  0
 19 20  2  0
 20 21  1  0
 21 22  2  0
  6 23  1  0
 23  2  1  0
 15  5  1  0
 22 17  1  0
  1 24  1  0
  1 25  1  0
  1 26  1  0
  3 27  1  0
  4 28  1  0
  9 29  1  0
  9 30  1  0
 12 31  1  0
 16 32  1  0
 16 33  1  0
 18 34  1  0
 19 35  1  0
 20 36  1  0
 21 37  1  0
 22 38  1  0
 23 39  1  0
 23 40  1  0
M  END
>  <smiles>
CN1C=Cc2c(nc(CC(=O)O)c(=O)n2Cc2ccccc2)C1

$$$$
