mol_b54a8016929c
     RDKit          3D

 58 61  0  0  0  0  0  0  0  0999 V2000
    0.2950    0.2339    2.5401 C   0  0  0  0  0  0  0  0  0  0  0  0
   -0.5548    0.3730    1.2989 C   0  0  0  0  0  0  0  0  0  0  0  0
    0.0398    0.6638    0.0525 C   0  0  0  0  0  0  0  0  0  0  0  0
    1.5294    0.8533   -0.1514 C   0  0  0  0  0  0  0  0  0  0  0  0
    2.2536   -0.4811   -0.3625 C   0  0  0  0  0  0  0  0  0  0  0  0
    3.6973   -0.2901   -0.5545 N   0  0  0  0  0  0  0  0  0  0  0  0
    4.5180   -0.4222    0.6537 C   0  0  0  0  0  0  0  0  0  0  0  0
    5.7809    0.4236    0.7032 C   0  0  0  0  0  0  0  0  0  0  0  0
    6.9443   -0.2204   -0.0430 C   0  0  0  0  0  0  0  0  0  0  0  0
    6.5524   -0.8229   -1.3868 C   0  0  0  0  0  0  0  0  0  0  0  0
    5.6111    0.0801   -2.1616 C   0  0  0  0  0  0  0  0  0  0  0  0
    4.1335   -0.0936   -1.8563 C   0  0  0  0  0  0  0  0  0  0  0  0
    3.3300    0.0126   -2.7901 O   0  0  0  0  0  0  0  0  0  0  0  0
   -0.7743    0.7675   -1.0825 C   0  0  0  0  0  0  0  0  0  0  0  0
   -2.1655    0.6092   -1.0150 C   0  0  0  0  0  0  0  0  0  0  0  0
   -2.7927    0.3052    0.2099 C   0  0  0  0  0  0  0  0  0  0  0  0
   -1.9739    0.2180    1.3658 C   0  0  0  0  0  0  0  0  0  0  0  0
   -2.6579   -0.0348    2.6670 C   0  0  0  0  0  0  0  0  0  0  0  0
   -2.0871   -0.1339    3.7524 O   0  0  0  0  0  0  0  0  0  0  0  0
   -4.1347   -0.1635    2.6845 C   0  0  0  0  0  0  0  0  0  0  0  0
   -4.7235   -0.3628    3.9213 O   0  0  0  0  0  0  0  0  0  0  0  0
   -4.8262   -0.0941    1.5350 C   0  0  0  0  0  0  0  0  0  0  0  0
   -6.3339   -0.2272    1.5845 C   0  0  0  0  0  0  0  0  0  0  0  0
   -4.2044    0.1061    0.2900 N   0  0  0  0  0  0  0  0  0  0  0  0
   -4.9331   -0.0092   -0.9969 C   0  0  0  0  0  0  0  0  0  0  0  0
   -4.8975   -1.4575   -1.4990 C   0  0  0  0  0  0  0  0  0  0  0  0
   -4.4075    0.9942   -2.0178 C   0  0  0  0  0  0  0  0  0  0  0  0
   -2.9392    0.7565   -2.2968 C   0  0  0  0  0  0  0  0  0  0  0  0
    0.0666    1.0370    3.2479 H   0  0  0  0  0  0  0  0  0  0  0  0
    0.1334   -0.7450    3.0030 H   0  0  0  0  0  0  0  0  0  0  0  0
    1.3674    0.2853    2.3448 H   0  0  0  0  0  0  0  0  0  0  0  0
    1.9635    1.4159    0.6830 H   0  0  0  0  0  0  0  0  0  0  0  0
    1.6976    1.5027   -1.0214 H   0  0  0  0  0  0  0  0  0  0  0  0
    1.8349   -0.9938   -1.2377 H   0  0  0  0  0  0  0  0  0  0  0  0
    2.0995   -1.1604    0.4846 H   0  0  0  0  0  0  0  0  0  0  0  0
    4.7381   -1.4867    0.7944 H   0  0  0  0  0  0  0  0  0  0  0  0
    3.8923   -0.1113    1.4997 H   0  0  0  0  0  0  0  0  0  0  0  0
    5.5811    1.4289    0.3136 H   0  0  0  0  0  0  0  0  0  0  0  0
    6.0867    0.5544    1.7487 H   0  0  0  0  0  0  0  0  0  0  0  0
    7.7259    0.5352   -0.1898 H   0  0  0  0  0  0  0  0  0  0  0  0
    7.3912   -1.0077    0.5765 H   0  0  0  0  0  0  0  0  0  0  0  0
    6.1015   -1.8121   -1.2418 H   0  0  0  0  0  0  0  0  0  0  0  0
    7.4686   -0.9834   -1.9680 H   0  0  0  0  0  0  0  0  0  0  0  0
    5.8719    1.1382   -2.0482 H   0  0  0  0  0  0  0  0  0  0  0  0
    5.7299   -0.1583   -3.2270 H   0  0  0  0  0  0  0  0  0  0  0  0
   -0.3144    0.9811   -2.0491 H   0  0  0  0  0  0  0  0  0  0  0  0
   -3.9657   -0.3740    4.5455 H   0  0  0  0  0  0  0  0  0  0  0  0
   -6.6673   -1.0855    0.9929 H   0  0  0  0  0  0  0  0  0  0  0  0
   -6.7243   -0.3750    2.5964 H   0  0  0  0  0  0  0  0  0  0  0  0
   -6.8077    0.6807    1.1963 H   0  0  0  0  0  0  0  0  0  0  0  0
   -5.9875    0.2538   -0.8551 H   0  0  0  0  0  0  0  0  0  0  0  0
   -3.8765   -1.8327   -1.6214 H   0  0  0  0  0  0  0  0  0  0  0  0
   -5.4111   -1.5455   -2.4620 H   0  0  0  0  0  0  0  0  0  0  0  0
   -5.3985   -2.1263   -0.7912 H   0  0  0  0  0  0  0  0  0  0  0  0
   -4.9783    0.9331   -2.9518 H   0  0  0  0  0  0  0  0  0  0  0  0
   -4.5461    2.0116   -1.6273 H   0  0  0  0  0  0  0  0  0  0  0  0
   -2.5511    1.6026   -2.8770 H   0  0  0  0  0  0  0  0  0  0  0  0
   -2.8010   -0.1464   -2.9031 H   0  0  0  0  0  0  0  0  0  0  0  0
  1  2  1  0
  2  3  1  0
  3  4  1  0
  4  5  1  0
  5  6  1  0
  6  7  1  0
  7  8  1  0
  8  9  1  0
  9 10  1  0
 10 11  1  0
 11 12  1  0
 12 13  2  0
  3 14  2  0
 14 15  1  0
 15 16  2  0
 16 17  1  0
 17 18  1  0
 18 19  2  0
 18 20  1  0
 20 21  1  0
 20 22  2  0
 22 23  1  0
 22 24  1  0
 24 25  1  0
 25 26  1  0
 25 27  1  0
 27 28  1  0
 17  2  2  0
 12  6  1  0
 28 15  1  0
 24 16  1  0
  1 29  1  0
  1 30  1  0
  1 31  1  0
  4 32  1  0
  4 33  1  0
  5 34  1  0
  5 35  1  0
  7 36  1  0
  7 37  1  0
  8 38  1  0
  8 39  1  0
  9 40  1  0
  9 41  1  0
 10 42  1  0
 10 43  1  0
 11 44  1  0
 11 45  1  0
 14 46  1  0
 21 47  1  0
 23 48  1  0
 23 49  1  0
 23 50  1  0
 25 51  1  0
 26 52  1  0
 26 53  1  0
 26 54  1  0
 27 55  1  0
 27 56  1  0
 28 57  1  0
 28 58  1  0
M  END
>  <smiles>
Cc1c(CCN2CCCCCC2=O)cc2c3c1c(=O)c(O)c(C)n3C(C)CC2

$$$$
