mol_a006a0f9f8e6
     RDKit          3D

 55 60  0  0  0  0  0  0  0  0999 V2000
    1.0306   -1.5622    4.0906 O   0  0  0  0  0  0  0  0  0  0  0  0
    1.6042   -1.0486    3.1299 C   0  0  0  0  0  0  0  0  0  0  0  0
    3.0995   -0.9300    3.1528 C   0  0  0  0  0  0  0  0  0  0  0  0
    3.6733   -1.5143    1.8931 C   0  0  0  0  0  0  0  0  0  0  0  0
    3.0437   -0.8893    0.6712 C   0  0  0  0  0  0  0  0  0  0  0  0
    1.7031   -0.4136    0.7569 C   0  0  0  0  0  0  0  0  0  0  0  0
    1.0853    0.0659   -0.4005 C   0  0  0  0  0  0  0  0  0  0  0  0
    1.8298    0.1424   -1.5964 C   0  0  0  0  0  0  0  0  0  0  0  0
    3.1523   -0.2973   -1.6920 C   0  0  0  0  0  0  0  0  0  0  0  0
    3.8347   -0.2101   -2.9200 C   0  0  0  0  0  0  0  0  0  0  0  0
    5.1330   -0.6878   -3.0374 C   0  0  0  0  0  0  0  0  0  0  0  0
    5.8187   -0.6182   -4.2125 O   0  0  0  0  0  0  0  0  0  0  0  0
    5.7665   -1.2616   -1.9518 C   0  0  0  0  0  0  0  0  0  0  0  0
    5.0953   -1.3461   -0.7292 C   0  0  0  0  0  0  0  0  0  0  0  0
    3.7758   -0.8536   -0.5587 C   0  0  0  0  0  0  0  0  0  0  0  0
   -0.4024    0.3531   -0.4307 C   0  0  0  0  0  0  0  0  0  0  0  0
   -0.6169    1.4901   -1.2913 O   0  0  0  0  0  0  0  0  0  0  0  0
   -1.2798    1.1385   -2.5148 C   0  0  0  0  0  0  0  0  0  0  0  0
   -2.8171    1.1564   -2.4231 C   0  0  0  0  0  0  0  0  0  0  0  0
   -3.3278    0.6376   -1.1436 N   0  0  0  0  0  0  0  0  0  0  0  0
   -4.7339    0.2226   -1.2689 C   0  0  0  0  0  0  0  0  0  0  0  0
   -5.2603   -0.5738   -0.0643 C   0  0  0  0  0  0  0  0  0  0  0  0
   -6.6053   -0.9865   -0.3003 O   0  0  0  0  0  0  0  0  0  0  0  0
   -3.1335    1.6577   -0.0953 C   0  0  0  0  0  0  0  0  0  0  0  0
   -2.3219    1.1407    1.0747 C   0  0  0  0  0  0  0  0  0  0  0  0
   -2.8871    1.2917    2.3487 C   0  0  0  0  0  0  0  0  0  0  0  0
   -2.1915    0.8764    3.4622 C   0  0  0  0  0  0  0  0  0  0  0  0
   -2.7313    1.0430    4.6766 F   0  0  0  0  0  0  0  0  0  0  0  0
   -0.9363    0.3019    3.3405 C   0  0  0  0  0  0  0  0  0  0  0  0
   -0.3249    0.1120    2.0845 C   0  0  0  0  0  0  0  0  0  0  0  0
   -1.0153    0.5732    0.9381 C   0  0  0  0  0  0  0  0  0  0  0  0
    0.9942   -0.4713    2.0042 N   0  0  0  0  0  0  0  0  0  0  0  0
    3.4943   -1.4566    4.0286 H   0  0  0  0  0  0  0  0  0  0  0  0
    3.3579    0.1310    3.2579 H   0  0  0  0  0  0  0  0  0  0  0  0
    3.5051   -2.5975    1.8550 H   0  0  0  0  0  0  0  0  0  0  0  0
    4.7518   -1.3349    1.9272 H   0  0  0  0  0  0  0  0  0  0  0  0
    1.3529    0.5343   -2.4918 H   0  0  0  0  0  0  0  0  0  0  0  0
    3.3394    0.2272   -3.7823 H   0  0  0  0  0  0  0  0  0  0  0  0
    5.2612   -0.1797   -4.8757 H   0  0  0  0  0  0  0  0  0  0  0  0
    6.7786   -1.6439   -2.0491 H   0  0  0  0  0  0  0  0  0  0  0  0
    5.6324   -1.8142    0.0910 H   0  0  0  0  0  0  0  0  0  0  0  0
   -0.8791   -0.5511   -0.8371 H   0  0  0  0  0  0  0  0  0  0  0  0
   -0.9707    1.8741   -3.2657 H   0  0  0  0  0  0  0  0  0  0  0  0
   -0.9340    0.1615   -2.8746 H   0  0  0  0  0  0  0  0  0  0  0  0
   -3.1884    2.1756   -2.5966 H   0  0  0  0  0  0  0  0  0  0  0  0
   -3.1872    0.5580   -3.2656 H   0  0  0  0  0  0  0  0  0  0  0  0
   -4.8468   -0.4301   -2.1452 H   0  0  0  0  0  0  0  0  0  0  0  0
   -5.3878    1.0838   -1.4618 H   0  0  0  0  0  0  0  0  0  0  0  0
   -5.2483    0.0134    0.8579 H   0  0  0  0  0  0  0  0  0  0  0  0
   -4.6572   -1.4737    0.0935 H   0  0  0  0  0  0  0  0  0  0  0  0
   -7.1620   -0.1896   -0.2878 H   0  0  0  0  0  0  0  0  0  0  0  0
   -2.6372    2.5684   -0.4584 H   0  0  0  0  0  0  0  0  0  0  0  0
   -4.1054    2.0312    0.2558 H   0  0  0  0  0  0  0  0  0  0  0  0
   -3.8669    1.7388    2.4886 H   0  0  0  0  0  0  0  0  0  0  0  0
   -0.4571    0.0349    4.2755 H   0  0  0  0  0  0  0  0  0  0  0  0
  1  2  2  0
  2  3  1  0
  3  4  1  0
  4  5  1  0
  5  6  2  0
  6  7  1  0
  7  8  2  0
  8  9  1  0
  9 10  2  0
 10 11  1  0
 11 12  1  0
 11 13  2  0
 13 14  1  0
 14 15  2  0
  7 16  1  0
 16 17  1  0
 17 18  1  0
 18 19  1  0
 19 20  1  0
 20 21  1  0
 21 22  1  0
 22 23  1  0
 20 24  1  0
 24 25  1  0
 25 26  2  0
 26 27  1  0
 27 28  1  0
 27 29  2  0
 29 30  1  0
 30 31  2  0
 30 32  1  0
 32  2  1  0
 15  5  1  0
 31 16  1  0
 32  6  1  0
 15  9  1  0
 31 25  1  0
  3 33  1  0
  3 34  1  0
  4 35  1  0
  4 36  1  0
  8 37  1  0
 10 38  1  0
 12 39  1  0
 13 40  1  0
 14 41  1  0
 16 42  1  0
 18 43  1  0
 18 44  1  0
 19 45  1  0
 19 46  1  0
 21 47  1  0
 21 48  1  0
 22 49  1  0
 22 50  1  0
 23 51  1  0
 24 52  1  0
 24 53  1  0
 26 54  1  0
 29 55  1  0
M  END
>  <smiles>
O=C1CCc2c3c(cc4cc(O)ccc24)C2OCCN(CCO)Cc4cc(F)cc(c42)N13

$$$$
