mol_e880acda6999
     RDKit          3D

 56 59  0  0  0  0  0  0  0  0999 V2000
   -0.0149   -2.8584    3.0573 O   0  0  0  0  0  0  0  0  0  0  0  0
    1.0317   -3.3382    3.4591 C   0  0  0  0  0  0  0  0  0  0  0  0
    1.2888   -4.6507    3.2973 O   0  0  0  0  0  0  0  0  0  0  0  0
    2.1230   -2.6290    4.2117 C   0  0  0  0  0  0  0  0  0  0  0  0
    2.2912   -1.1849    3.7469 C   0  0  0  0  0  0  0  0  0  0  0  0
    2.9568   -1.0824    2.3946 C   0  0  0  0  0  0  0  0  0  0  0  0
    4.3495   -1.1505    2.2819 C   0  0  0  0  0  0  0  0  0  0  0  0
    4.9577   -1.0613    1.0318 C   0  0  0  0  0  0  0  0  0  0  0  0
    4.1787   -0.9187   -0.1188 C   0  0  0  0  0  0  0  0  0  0  0  0
    2.7791   -0.8779   -0.0398 C   0  0  0  0  0  0  0  0  0  0  0  0
    1.9659   -0.7128   -1.2029 N   0  0  0  0  0  0  0  0  0  0  0  0
    0.9457    0.2561   -1.2264 C   0  0  0  0  0  0  0  0  0  0  0  0
    0.6863    1.0197   -0.2933 O   0  0  0  0  0  0  0  0  0  0  0  0
    0.1533    0.4243   -2.5017 C   0  0  0  0  0  0  0  0  0  0  0  0
   -0.9250    1.4730   -2.5003 C   0  0  0  0  0  0  0  0  0  0  0  0
   -2.1639    0.9205   -1.8021 C   0  0  0  0  0  0  0  0  0  0  0  0
   -2.7178   -0.0769   -2.2814 O   0  0  0  0  0  0  0  0  0  0  0  0
   -2.6760    1.5520   -0.6778 N   0  0  0  0  0  0  0  0  0  0  0  0
   -3.9103    1.0003   -0.1010 C   0  0  0  0  0  0  0  0  0  0  0  0
   -4.6858    1.9496    0.8150 C   0  0  0  0  0  0  0  0  0  0  0  0
   -5.1232    3.2505    0.1365 C   0  0  0  0  0  0  0  0  0  0  0  0
   -4.1454    3.8913   -0.7458 N   0  0  0  0  0  0  0  0  0  0  0  0
   -2.8054    4.0051   -0.1516 C   0  0  0  0  0  0  0  0  0  0  0  0
   -2.0478    2.6708    0.0455 C   0  0  0  0  0  0  0  0  0  0  0  0
    0.4309   -0.3395   -3.5728 C   0  0  0  0  0  0  0  0  0  0  0  0
    1.4292   -1.3437   -3.5135 C   0  0  0  0  0  0  0  0  0  0  0  0
    1.7822   -2.2744   -4.5241 C   0  0  0  0  0  0  0  0  0  0  0  0
    2.7432   -3.1537   -4.0737 C   0  0  0  0  0  0  0  0  0  0  0  0
    3.1751   -2.8512   -2.4439 S   0  0  0  0  0  0  0  0  0  0  0  0
    2.1457   -1.4971   -2.3487 C   0  0  0  0  0  0  0  0  0  0  0  0
    2.1842   -0.9401    1.2306 C   0  0  0  0  0  0  0  0  0  0  0  0
    0.5132   -4.9835    2.7986 H   0  0  0  0  0  0  0  0  0  0  0  0
    1.8474   -2.6500    5.2719 H   0  0  0  0  0  0  0  0  0  0  0  0
    3.0631   -3.1808    4.0968 H   0  0  0  0  0  0  0  0  0  0  0  0
    1.3260   -0.6635    3.7265 H   0  0  0  0  0  0  0  0  0  0  0  0
    2.9060   -0.6423    4.4765 H   0  0  0  0  0  0  0  0  0  0  0  0
    4.9698   -1.2620    3.1684 H   0  0  0  0  0  0  0  0  0  0  0  0
    6.0412   -1.0921    0.9510 H   0  0  0  0  0  0  0  0  0  0  0  0
    4.6851   -0.8024   -1.0734 H   0  0  0  0  0  0  0  0  0  0  0  0
   -0.5596    2.4178   -2.1014 H   0  0  0  0  0  0  0  0  0  0  0  0
   -1.2335    1.7063   -3.5283 H   0  0  0  0  0  0  0  0  0  0  0  0
   -3.6191    0.1087    0.4674 H   0  0  0  0  0  0  0  0  0  0  0  0
   -4.5660    0.6616   -0.9122 H   0  0  0  0  0  0  0  0  0  0  0  0
   -4.0945    2.1833    1.7081 H   0  0  0  0  0  0  0  0  0  0  0  0
   -5.5793    1.4303    1.1835 H   0  0  0  0  0  0  0  0  0  0  0  0
   -6.0202    3.0497   -0.4619 H   0  0  0  0  0  0  0  0  0  0  0  0
   -5.4335    3.9663    0.9071 H   0  0  0  0  0  0  0  0  0  0  0  0
   -4.0519    3.3056   -1.5792 H   0  0  0  0  0  0  0  0  0  0  0  0
   -2.2135    4.6232   -0.8379 H   0  0  0  0  0  0  0  0  0  0  0  0
   -2.8403    4.5645    0.7909 H   0  0  0  0  0  0  0  0  0  0  0  0
   -2.0153    2.3994    1.1070 H   0  0  0  0  0  0  0  0  0  0  0  0
   -1.0082    2.8130   -0.2446 H   0  0  0  0  0  0  0  0  0  0  0  0
   -0.1429   -0.2267   -4.4887 H   0  0  0  0  0  0  0  0  0  0  0  0
    1.3488   -2.3226   -5.5155 H   0  0  0  0  0  0  0  0  0  0  0  0
    3.1956   -3.9756   -4.6117 H   0  0  0  0  0  0  0  0  0  0  0  0
    1.0989   -0.9002    1.3195 H   0  0  0  0  0  0  0  0  0  0  0  0
  1  2  2  0
  2  3  1  0
  2  4  1  0
  4  5  1  0
  5  6  1  0
  6  7  2  0
  7  8  1  0
  8  9  2  0
  9 10  1  0
 10 11  1  0
 11 12  1  0
 12 13  2  0
 12 14  1  0
 14 15  1  0
 15 16  1  0
 16 17  2  0
 16 18  1  0
 18 19  1  0
 19 20  1  0
 20 21  1  0
 21 22  1  0
 22 23  1  0
 23 24  1  0
 14 25  2  0
 25 26  1  0
 26 27  1  0
 27 28  2  0
 28 29  1  0
 29 30  1  0
 10 31  2  0
 31  6  1  0
 30 11  1  0
 24 18  1  0
 30 26  2  0
  3 32  1  0
  4 33  1  0
  4 34  1  0
  5 35  1  0
  5 36  1  0
  7 37  1  0
  8 38  1  0
  9 39  1  0
 15 40  1  0
 15 41  1  0
 19 42  1  0
 19 43  1  0
 20 44  1  0
 20 45  1  0
 21 46  1  0
 21 47  1  0
 22 48  1  0
 23 49  1  0
 23 50  1  0
 24 51  1  0
 24 52  1  0
 25 53  1  0
 27 54  1  0
 28 55  1  0
 31 56  1  0
M  END
>  <smiles>
O=C(O)CCc1cccc(-n2c(=O)c(CC(=O)N3CCCNCC3)cc3ccsc32)c1

$$$$
