mol_c58c6869c0fb
     RDKit          3D

 52 55  0  0  0  0  0  0  0  0999 V2000
   -3.0640    1.7543    1.0756 C   0  0  0  0  0  0  0  0  0  0  0  0
   -3.3382    0.4232    0.6058 N   0  0  0  0  0  0  0  0  0  0  0  0
   -3.5444    0.1525   -0.7293 C   0  0  0  0  0  0  0  0  0  0  0  0
   -3.5781    1.0286   -1.5907 O   0  0  0  0  0  0  0  0  0  0  0  0
   -3.8425   -1.3263   -1.0602 C   0  0  0  0  0  0  0  0  0  0  0  0
   -5.3444   -1.5195   -1.2882 C   0  0  0  0  0  0  0  0  0  0  0  0
   -5.8695   -1.8928    0.0947 C   0  0  0  0  0  0  0  0  0  0  0  0
   -4.7541   -2.7507    0.6687 C   0  0  0  0  0  0  0  0  0  0  0  0
   -3.5402   -2.2524    0.0444 N   0  0  0  0  0  0  0  0  0  0  0  0
   -2.3032   -2.7195    0.4436 C   0  0  0  0  0  0  0  0  0  0  0  0
   -2.1422   -3.4498    1.4160 O   0  0  0  0  0  0  0  0  0  0  0  0
   -1.1137   -2.2795   -0.3081 C   0  0  0  0  0  0  0  0  0  0  0  0
   -0.8594   -2.7895   -1.5808 C   0  0  0  0  0  0  0  0  0  0  0  0
    0.2747   -2.3653   -2.2738 C   0  0  0  0  0  0  0  0  0  0  0  0
    1.1654   -1.4440   -1.6961 C   0  0  0  0  0  0  0  0  0  0  0  0
    2.3049   -1.0048   -2.3822 C   0  0  0  0  0  0  0  0  0  0  0  0
    3.1859   -0.0922   -1.7937 C   0  0  0  0  0  0  0  0  0  0  0  0
    2.9583    0.4082   -0.5042 C   0  0  0  0  0  0  0  0  0  0  0  0
    3.8951    1.3555    0.1223 C   0  0  0  0  0  0  0  0  0  0  0  0
    4.4796    1.0725    1.3561 C   0  0  0  0  0  0  0  0  0  0  0  0
    5.3464    1.8817    2.0155 N   0  0  0  0  0  0  0  0  0  0  0  0
    5.6725    3.0519    1.4255 C   0  0  0  0  0  0  0  0  0  0  0  0
    6.6329    3.9444    2.1528 C   0  0  0  0  0  0  0  0  0  0  0  0
    5.1542    3.4369    0.1951 C   0  0  0  0  0  0  0  0  0  0  0  0
    4.2637    2.5790   -0.4488 C   0  0  0  0  0  0  0  0  0  0  0  0
    3.7315    2.9479   -1.6567 O   0  0  0  0  0  0  0  0  0  0  0  0
    1.8130   -0.0350    0.1812 C   0  0  0  0  0  0  0  0  0  0  0  0
    0.9138   -0.9499   -0.3953 C   0  0  0  0  0  0  0  0  0  0  0  0
   -0.2285   -1.3823    0.2945 C   0  0  0  0  0  0  0  0  0  0  0  0
   -2.0839    2.0662    0.7051 H   0  0  0  0  0  0  0  0  0  0  0  0
   -3.0652    1.7479    2.1678 H   0  0  0  0  0  0  0  0  0  0  0  0
   -3.8291    2.4411    0.7039 H   0  0  0  0  0  0  0  0  0  0  0  0
   -3.3310   -0.3561    1.2549 H   0  0  0  0  0  0  0  0  0  0  0  0
   -3.2683   -1.5887   -1.9526 H   0  0  0  0  0  0  0  0  0  0  0  0
   -5.8486   -0.6385   -1.6966 H   0  0  0  0  0  0  0  0  0  0  0  0
   -5.5088   -2.3580   -1.9762 H   0  0  0  0  0  0  0  0  0  0  0  0
   -6.8274   -2.4190    0.0586 H   0  0  0  0  0  0  0  0  0  0  0  0
   -6.0011   -0.9887    0.7008 H   0  0  0  0  0  0  0  0  0  0  0  0
   -4.6857   -2.6876    1.7590 H   0  0  0  0  0  0  0  0  0  0  0  0
   -4.8704   -3.8024    0.3839 H   0  0  0  0  0  0  0  0  0  0  0  0
   -1.5324   -3.5144   -2.0305 H   0  0  0  0  0  0  0  0  0  0  0  0
    0.4641   -2.7616   -3.2693 H   0  0  0  0  0  0  0  0  0  0  0  0
    2.5204   -1.3665   -3.3851 H   0  0  0  0  0  0  0  0  0  0  0  0
    4.0609    0.2307   -2.3551 H   0  0  0  0  0  0  0  0  0  0  0  0
    4.2657    0.1395    1.8731 H   0  0  0  0  0  0  0  0  0  0  0  0
    6.9420    3.4940    3.1015 H   0  0  0  0  0  0  0  0  0  0  0  0
    6.1625    4.9082    2.3705 H   0  0  0  0  0  0  0  0  0  0  0  0
    7.5288    4.1096    1.5462 H   0  0  0  0  0  0  0  0  0  0  0  0
    5.4439    4.3852   -0.2423 H   0  0  0  0  0  0  0  0  0  0  0  0
    4.0182    3.8488   -1.8764 H   0  0  0  0  0  0  0  0  0  0  0  0
    1.6106    0.3512    1.1794 H   0  0  0  0  0  0  0  0  0  0  0  0
   -0.4349   -1.0239    1.3003 H   0  0  0  0  0  0  0  0  0  0  0  0
  1  2  1  0
  2  3  1  0
  3  4  2  0
  3  5  1  0
  5  6  1  0
  6  7  1  0
  7  8  1  0
  8  9  1  0
  9 10  1  0
 10 11  2  0
 10 12  1  0
 12 13  2  0
 13 14  1  0
 14 15  2  0
 15 16  1  0
 16 17  2  0
 17 18  1  0
 18 19  1  0
 19 20  1  0
 20 21  2  0
 21 22  1  0
 22 23  1  0
 22 24  2  0
 24 25  1  0
 25 26  1  0
 18 27  2  0
 27 28  1  0
 28 29  2  0
  9  5  1  0
 29 12  1  0
 28 15  1  0
 25 19  2  0
  1 30  1  0
  1 31  1  0
  1 32  1  0
  2 33  1  0
  5 34  1  0
  6 35  1  0
  6 36  1  0
  7 37  1  0
  7 38  1  0
  8 39  1  0
  8 40  1  0
 13 41  1  0
 14 42  1  0
 16 43  1  0
 17 44  1  0
 20 45  1  0
 23 46  1  0
 23 47  1  0
 23 48  1  0
 24 49  1  0
 26 50  1  0
 27 51  1  0
 29 52  1  0
M  END
>  <smiles>
CNC(=O)C1CCCN1C(=O)c1ccc2ccc(-c3cnc(C)cc3O)cc2c1

$$$$
