mol_63d5dc147668
     RDKit          3D

 52 55  0  0  0  0  0  0  0  0999 V2000
   -1.6926   -0.2624   -2.7816 C   0  0  0  0  0  0  0  0  0  0  0  0
   -2.2504   -1.0758   -1.6212 C   0  0  0  0  0  0  0  0  0  0  0  0
   -3.1026   -0.2302   -0.6861 C   0  0  0  0  0  0  0  0  0  0  0  0
   -4.3545    0.0504   -1.2224 N   0  0  0  0  0  0  0  0  0  0  0  0
   -5.1518    0.7236   -0.4704 C   0  0  0  0  0  0  0  0  0  0  0  0
   -6.4240    1.1282   -0.8010 N   0  0  0  0  0  0  0  0  0  0  0  0
   -6.8118    1.7855    0.2596 C   0  0  0  0  0  0  0  0  0  0  0  0
   -7.9891    2.4085    0.4110 N   0  0  0  0  0  0  0  0  0  0  0  0
   -5.9240    1.8267    1.2928 N   0  0  0  0  0  0  0  0  0  0  0  0
   -4.8389    1.1567    0.7821 N   0  0  0  0  0  0  0  0  0  0  0  0
   -3.6387    0.9658    1.3945 C   0  0  0  0  0  0  0  0  0  0  0  0
   -3.3510    1.3937    2.5083 O   0  0  0  0  0  0  0  0  0  0  0  0
   -2.6837    0.1732    0.5440 C   0  0  0  0  0  0  0  0  0  0  0  0
   -1.3445   -0.1290    1.0765 C   0  0  0  0  0  0  0  0  0  0  0  0
   -1.1748   -1.1517    2.0220 C   0  0  0  0  0  0  0  0  0  0  0  0
    0.0943   -1.4497    2.5267 C   0  0  0  0  0  0  0  0  0  0  0  0
    1.2059   -0.7356    2.0830 C   0  0  0  0  0  0  0  0  0  0  0  0
    1.0386    0.2718    1.1300 C   0  0  0  0  0  0  0  0  0  0  0  0
    2.2032    1.0371    0.6505 C   0  0  0  0  0  0  0  0  0  0  0  0
    2.3290    2.1861    1.0663 O   0  0  0  0  0  0  0  0  0  0  0  0
    3.0865    0.4323   -0.2505 N   0  0  0  0  0  0  0  0  0  0  0  0
    4.2443    1.2279   -0.6470 C   0  0  0  0  0  0  0  0  0  0  0  0
    5.3927    0.4975   -1.3386 C   0  0  0  0  0  0  0  0  0  0  0  0
    5.9308   -0.6921   -0.5475 C   0  0  0  0  0  0  0  0  0  0  0  0
    5.1509   -1.9805   -0.7981 C   0  0  0  0  0  0  0  0  0  0  0  0
    3.7118   -1.9679   -0.2898 C   0  0  0  0  0  0  0  0  0  0  0  0
    2.8493   -0.8623   -0.8925 C   0  0  0  0  0  0  0  0  0  0  0  0
   -0.2293    0.5954    0.6399 C   0  0  0  0  0  0  0  0  0  0  0  0
   -1.0568    0.5548   -2.4265 H   0  0  0  0  0  0  0  0  0  0  0  0
   -2.4950    0.1695   -3.3888 H   0  0  0  0  0  0  0  0  0  0  0  0
   -1.0875   -0.9020   -3.4322 H   0  0  0  0  0  0  0  0  0  0  0  0
   -1.4225   -1.5642   -1.0970 H   0  0  0  0  0  0  0  0  0  0  0  0
   -2.8650   -1.8943   -2.0178 H   0  0  0  0  0  0  0  0  0  0  0  0
   -8.3100    2.7551    1.3021 H   0  0  0  0  0  0  0  0  0  0  0  0
   -8.6538    2.3607   -0.3514 H   0  0  0  0  0  0  0  0  0  0  0  0
   -5.7822    2.6162    1.9088 H   0  0  0  0  0  0  0  0  0  0  0  0
   -2.0333   -1.7154    2.3828 H   0  0  0  0  0  0  0  0  0  0  0  0
    0.2116   -2.2318    3.2730 H   0  0  0  0  0  0  0  0  0  0  0  0
    2.1913   -0.9518    2.4864 H   0  0  0  0  0  0  0  0  0  0  0  0
    4.6316    1.7370    0.2449 H   0  0  0  0  0  0  0  0  0  0  0  0
    3.8723    2.0158   -1.3139 H   0  0  0  0  0  0  0  0  0  0  0  0
    5.0994    0.1846   -2.3476 H   0  0  0  0  0  0  0  0  0  0  0  0
    6.2069    1.2212   -1.4730 H   0  0  0  0  0  0  0  0  0  0  0  0
    6.9673   -0.8686   -0.8616 H   0  0  0  0  0  0  0  0  0  0  0  0
    5.9634   -0.4645    0.5245 H   0  0  0  0  0  0  0  0  0  0  0  0
    5.1550   -2.2071   -1.8717 H   0  0  0  0  0  0  0  0  0  0  0  0
    5.6803   -2.8075   -0.3089 H   0  0  0  0  0  0  0  0  0  0  0  0
    3.7146   -1.9005    0.8039 H   0  0  0  0  0  0  0  0  0  0  0  0
    3.2620   -2.9354   -0.5450 H   0  0  0  0  0  0  0  0  0  0  0  0
    3.0117   -0.7594   -1.9713 H   0  0  0  0  0  0  0  0  0  0  0  0
    1.7983   -1.1434   -0.7794 H   0  0  0  0  0  0  0  0  0  0  0  0
   -0.3352    1.4074   -0.0760 H   0  0  0  0  0  0  0  0  0  0  0  0
  1  2  1  0
  2  3  1  0
  3  4  1  0
  4  5  2  0
  5  6  1  0
  6  7  2  0
  7  8  1  0
  7  9  1  0
  9 10  1  0
 10 11  1  0
 11 12  2  0
 11 13  1  0
 13 14  1  0
 14 15  2  0
 15 16  1  0
 16 17  2  0
 17 18  1  0
 18 19  1  0
 19 20  2  0
 19 21  1  0
 21 22  1  0
 22 23  1  0
 23 24  1  0
 24 25  1  0
 25 26  1  0
 26 27  1  0
 18 28  2  0
 13  3  2  0
 28 14  1  0
 10  5  1  0
 27 21  1  0
  1 29  1  0
  1 30  1  0
  1 31  1  0
  2 32  1  0
  2 33  1  0
  8 34  1  0
  8 35  1  0
  9 36  1  0
 15 37  1  0
 16 38  1  0
 17 39  1  0
 22 40  1  0
 22 41  1  0
 23 42  1  0
 23 43  1  0
 24 44  1  0
 24 45  1  0
 25 46  1  0
 25 47  1  0
 26 48  1  0
 26 49  1  0
 27 50  1  0
 27 51  1  0
 28 52  1  0
M  END
>  <smiles>
CCc1nc2nc(N)[nH]n2c(=O)c1-c1cccc(C(=O)N2CCCCCC2)c1

$$$$
