mol_eb8a19307b3d
     RDKit          3D

 45 47  0  0  0  0  0  0  0  0999 V2000
    5.1315    2.0529   -0.3873 C   0  0  0  0  0  0  0  0  0  0  0  0
    4.3006    0.9553   -0.8441 N   0  0  0  0  0  0  0  0  0  0  0  0
    2.9605    1.2913   -1.3381 C   0  0  0  0  0  0  0  0  0  0  0  0
    2.2737    0.1515   -2.1025 C   0  0  0  0  0  0  0  0  0  0  0  0
    2.3740   -1.0723   -1.3028 N   0  0  0  0  0  0  0  0  0  0  0  0
    1.3879   -1.3164   -0.3544 C   0  0  0  0  0  0  0  0  0  0  0  0
    1.6709   -1.5237    1.0025 C   0  0  0  0  0  0  0  0  0  0  0  0
    0.6548   -1.7587    1.9342 C   0  0  0  0  0  0  0  0  0  0  0  0
   -0.6740   -1.7988    1.5250 C   0  0  0  0  0  0  0  0  0  0  0  0
   -0.9977   -1.6084    0.1788 C   0  0  0  0  0  0  0  0  0  0  0  0
   -2.4377   -1.6630   -0.2728 C   0  0  0  0  0  0  0  0  0  0  0  0
   -3.1946   -0.4946    0.1731 N   0  0  0  0  0  0  0  0  0  0  0  0
   -3.0537    0.7262   -0.6119 C   0  0  0  0  0  0  0  0  0  0  0  0
   -3.5176    1.9789    0.1092 C   0  0  0  0  0  0  0  0  0  0  0  0
   -4.8932    1.7321    0.6961 C   0  0  0  0  0  0  0  0  0  0  0  0
   -4.8115    0.6037    1.7057 C   0  0  0  0  0  0  0  0  0  0  0  0
   -4.1073   -0.6430    1.2044 C   0  0  0  0  0  0  0  0  0  0  0  0
   -4.3062   -1.7189    1.7707 O   0  0  0  0  0  0  0  0  0  0  0  0
    0.0379   -1.3692   -0.7418 C   0  0  0  0  0  0  0  0  0  0  0  0
    3.7691   -1.4906   -1.0775 C   0  0  0  0  0  0  0  0  0  0  0  0
    4.6670   -0.3579   -0.5396 C   0  0  0  0  0  0  0  0  0  0  0  0
    5.7090   -0.6270    0.0633 O   0  0  0  0  0  0  0  0  0  0  0  0
    6.1371    1.7173   -0.1209 H   0  0  0  0  0  0  0  0  0  0  0  0
    4.6630    2.5025    0.4931 H   0  0  0  0  0  0  0  0  0  0  0  0
    5.2077    2.7987   -1.1837 H   0  0  0  0  0  0  0  0  0  0  0  0
    2.3624    1.5719   -0.4629 H   0  0  0  0  0  0  0  0  0  0  0  0
    3.0408    2.1679   -1.9904 H   0  0  0  0  0  0  0  0  0  0  0  0
    2.7916   -0.0088   -3.0566 H   0  0  0  0  0  0  0  0  0  0  0  0
    1.2430    0.4268   -2.3501 H   0  0  0  0  0  0  0  0  0  0  0  0
    2.6914   -1.4853    1.3738 H   0  0  0  0  0  0  0  0  0  0  0  0
    0.9046   -1.9104    2.9811 H   0  0  0  0  0  0  0  0  0  0  0  0
   -1.4585   -1.9869    2.2561 H   0  0  0  0  0  0  0  0  0  0  0  0
   -2.8858   -2.5904    0.1026 H   0  0  0  0  0  0  0  0  0  0  0  0
   -2.5062   -1.7149   -1.3663 H   0  0  0  0  0  0  0  0  0  0  0  0
   -3.6375    0.5824   -1.5290 H   0  0  0  0  0  0  0  0  0  0  0  0
   -2.0051    0.8489   -0.9023 H   0  0  0  0  0  0  0  0  0  0  0  0
   -3.5438    2.8236   -0.5876 H   0  0  0  0  0  0  0  0  0  0  0  0
   -2.8112    2.2359    0.9081 H   0  0  0  0  0  0  0  0  0  0  0  0
   -5.2666    2.6403    1.1817 H   0  0  0  0  0  0  0  0  0  0  0  0
   -5.6006    1.4739   -0.1014 H   0  0  0  0  0  0  0  0  0  0  0  0
   -5.8237    0.3242    2.0190 H   0  0  0  0  0  0  0  0  0  0  0  0
   -4.2692    0.9406    2.5976 H   0  0  0  0  0  0  0  0  0  0  0  0
   -0.2129   -1.2519   -1.7937 H   0  0  0  0  0  0  0  0  0  0  0  0
    3.8375   -2.3609   -0.4155 H   0  0  0  0  0  0  0  0  0  0  0  0
    4.1981   -1.7947   -2.0405 H   0  0  0  0  0  0  0  0  0  0  0  0
  1  2  1  0
  2  3  1  0
  3  4  1  0
  4  5  1  0
  5  6  1  0
  6  7  1  0
  7  8  2  0
  8  9  1  0
  9 10  2  0
 10 11  1  0
 11 12  1  0
 12 13  1  0
 13 14  1  0
 14 15  1  0
 15 16  1  0
 16 17  1  0
 17 18  2  0
 10 19  1  0
  5 20  1  0
 20 21  1  0
 21 22  2  0
 21  2  1  0
 19  6  2  0
 17 12  1  0
  1 23  1  0
  1 24  1  0
  1 25  1  0
  3 26  1  0
  3 27  1  0
  4 28  1  0
  4 29  1  0
  7 30  1  0
  8 31  1  0
  9 32  1  0
 11 33  1  0
 11 34  1  0
 13 35  1  0
 13 36  1  0
 14 37  1  0
 14 38  1  0
 15 39  1  0
 15 40  1  0
 16 41  1  0
 16 42  1  0
 19 43  1  0
 20 44  1  0
 20 45  1  0
M  END
>  <smiles>
CN1CCN(c2cccc(CN3CCCCC3=O)c2)CC1=O

$$$$
