mol_4d6676b52f09
     RDKit          3D

 49 52  0  0  0  0  0  0  0  0999 V2000
    5.9610   -1.2453   -0.3716 O   0  0  0  0  0  0  0  0  0  0  0  0
    5.3619   -0.3174    0.1659 C   0  0  0  0  0  0  0  0  0  0  0  0
    6.0883    0.6893    1.0298 C   0  0  0  0  0  0  0  0  0  0  0  0
    5.3590    2.0212    1.0843 C   0  0  0  0  0  0  0  0  0  0  0  0
    3.9253    1.8278    1.5595 C   0  0  0  0  0  0  0  0  0  0  0  0
    3.1970    0.8287    0.6974 C   0  0  0  0  0  0  0  0  0  0  0  0
    1.7982    0.9066    0.5973 C   0  0  0  0  0  0  0  0  0  0  0  0
    1.1092   -0.0291   -0.2012 C   0  0  0  0  0  0  0  0  0  0  0  0
    1.7884   -1.0474   -0.8801 C   0  0  0  0  0  0  0  0  0  0  0  0
    3.1930   -1.1273   -0.7532 C   0  0  0  0  0  0  0  0  0  0  0  0
    3.8831   -0.1944    0.0356 C   0  0  0  0  0  0  0  0  0  0  0  0
    0.8228   -1.8124   -1.6005 C   0  0  0  0  0  0  0  0  0  0  0  0
    1.0519   -2.9538   -2.4669 C   0  0  0  0  0  0  0  0  0  0  0  0
    2.1354   -3.4561   -2.7228 O   0  0  0  0  0  0  0  0  0  0  0  0
   -0.0730   -3.4744   -3.0102 O   0  0  0  0  0  0  0  0  0  0  0  0
   -0.4042   -1.2345   -1.3379 C   0  0  0  0  0  0  0  0  0  0  0  0
   -0.2601   -0.1809   -0.4494 N   0  0  0  0  0  0  0  0  0  0  0  0
   -1.2893    0.6665    0.0390 C   0  0  0  0  0  0  0  0  0  0  0  0
   -1.0295    1.8356    0.3018 O   0  0  0  0  0  0  0  0  0  0  0  0
   -2.5665    0.1047    0.1052 N   0  0  0  0  0  0  0  0  0  0  0  0
   -2.7923   -1.2880    0.5270 C   0  0  0  0  0  0  0  0  0  0  0  0
   -3.7273   -1.3488    1.7295 C   0  0  0  0  0  0  0  0  0  0  0  0
   -5.0908   -0.7373    1.4200 C   0  0  0  0  0  0  0  0  0  0  0  0
   -5.0505    0.2331    0.2412 C   0  0  0  0  0  0  0  0  0  0  0  0
   -3.7335    1.0252    0.1841 C   0  0  0  0  0  0  0  0  0  0  0  0
   -3.7905    2.0098   -1.0122 C   0  0  0  0  0  0  0  0  0  0  0  0
   -3.0361    3.1951   -0.7717 O   0  0  0  0  0  0  0  0  0  0  0  0
    6.1988    0.2620    2.0325 H   0  0  0  0  0  0  0  0  0  0  0  0
    7.0877    0.8463    0.6093 H   0  0  0  0  0  0  0  0  0  0  0  0
    5.3591    2.4811    0.0874 H   0  0  0  0  0  0  0  0  0  0  0  0
    5.8851    2.7076    1.7571 H   0  0  0  0  0  0  0  0  0  0  0  0
    3.4122    2.7964    1.5303 H   0  0  0  0  0  0  0  0  0  0  0  0
    3.9126    1.4736    2.5974 H   0  0  0  0  0  0  0  0  0  0  0  0
    1.2578    1.6878    1.1285 H   0  0  0  0  0  0  0  0  0  0  0  0
    3.7413   -1.9144   -1.2693 H   0  0  0  0  0  0  0  0  0  0  0  0
    0.2755   -4.2108   -3.5539 H   0  0  0  0  0  0  0  0  0  0  0  0
   -1.3761   -1.4786   -1.7453 H   0  0  0  0  0  0  0  0  0  0  0  0
   -1.8493   -1.7664    0.8070 H   0  0  0  0  0  0  0  0  0  0  0  0
   -3.2233   -1.8322   -0.3206 H   0  0  0  0  0  0  0  0  0  0  0  0
   -3.8525   -2.3847    2.0641 H   0  0  0  0  0  0  0  0  0  0  0  0
   -3.2724   -0.8008    2.5648 H   0  0  0  0  0  0  0  0  0  0  0  0
   -5.4616   -0.2235    2.3152 H   0  0  0  0  0  0  0  0  0  0  0  0
   -5.8153   -1.5306    1.2002 H   0  0  0  0  0  0  0  0  0  0  0  0
   -5.1759   -0.3338   -0.6912 H   0  0  0  0  0  0  0  0  0  0  0  0
   -5.9088    0.9121    0.3103 H   0  0  0  0  0  0  0  0  0  0  0  0
   -3.6144    1.5981    1.1135 H   0  0  0  0  0  0  0  0  0  0  0  0
   -4.8175    2.3415   -1.1951 H   0  0  0  0  0  0  0  0  0  0  0  0
   -3.4196    1.5433   -1.9312 H   0  0  0  0  0  0  0  0  0  0  0  0
   -2.1743    2.9296   -0.3844 H   0  0  0  0  0  0  0  0  0  0  0  0
  1  2  2  0
  2  3  1  0
  3  4  1  0
  4  5  1  0
  5  6  1  0
  6  7  1  0
  7  8  2  0
  8  9  1  0
  9 10  2  0
 10 11  1  0
  9 12  1  0
 12 13  1  0
 13 14  2  0
 13 15  1  0
 12 16  2  0
 16 17  1  0
 17 18  1  0
 18 19  2  0
 18 20  1  0
 20 21  1  0
 21 22  1  0
 22 23  1  0
 23 24  1  0
 24 25  1  0
 25 26  1  0
 26 27  1  0
 11  2  1  0
 25 20  1  0
 11  6  2  0
 17  8  1  0
  3 28  1  0
  3 29  1  0
  4 30  1  0
  4 31  1  0
  5 32  1  0
  5 33  1  0
  7 34  1  0
 10 35  1  0
 15 36  1  0
 16 37  1  0
 21 38  1  0
 21 39  1  0
 22 40  1  0
 22 41  1  0
 23 42  1  0
 23 43  1  0
 24 44  1  0
 24 45  1  0
 25 46  1  0
 26 47  1  0
 26 48  1  0
 27 49  1  0
M  END
>  <smiles>
O=C1CCCc2cc3c(cc21)c(C(=O)O)cn3C(=O)N1CCCCC1CO

$$$$
