mol_a5638445770a
     RDKit          3D

 54 57  0  0  0  0  0  0  0  0999 V2000
    2.9663    1.3875    2.0401 C   0  0  0  0  0  0  0  0  0  0  0  0
    2.5394    2.3609    0.9563 C   0  0  0  0  0  0  0  0  0  0  0  0
    2.9857    1.9950   -0.4666 C   0  0  0  0  0  0  0  0  0  0  0  0
    2.4023    0.6974   -1.0944 C   0  0  0  0  0  0  0  0  0  0  0  0
    3.3029   -0.5023   -0.7774 C   0  0  0  0  0  0  0  0  0  0  0  0
    2.5193   -1.8044   -0.7769 C   0  0  0  0  0  0  0  0  0  0  0  0
    3.3950   -2.9260   -0.1985 C   0  0  0  0  0  0  0  0  0  0  0  0
    2.0453   -2.2390   -2.1730 C   0  0  0  0  0  0  0  0  0  0  0  0
    1.4273   -1.6483    0.1357 O   0  0  0  0  0  0  0  0  0  0  0  0
    0.5177   -0.6569   -0.1822 C   0  0  0  0  0  0  0  0  0  0  0  0
   -0.7870   -0.8264    0.1282 C   0  0  0  0  0  0  0  0  0  0  0  0
   -1.7402    0.1964   -0.2794 C   0  0  0  0  0  0  0  0  0  0  0  0
   -1.3409    1.3353   -0.8723 C   0  0  0  0  0  0  0  0  0  0  0  0
    0.0887    1.4806   -1.2722 C   0  0  0  0  0  0  0  0  0  0  0  0
    0.4328    2.4145   -1.9936 O   0  0  0  0  0  0  0  0  0  0  0  0
    0.9725    0.4934   -0.8165 N   0  0  0  0  0  0  0  0  0  0  0  0
   -2.2767    2.4585   -1.2243 C   0  0  0  0  0  0  0  0  0  0  0  0
   -2.1129    3.4946   -0.2518 O   0  0  0  0  0  0  0  0  0  0  0  0
   -3.7528    2.0287   -1.2345 C   0  0  0  0  0  0  0  0  0  0  0  0
   -4.0827    1.1628   -0.0128 C   0  0  0  0  0  0  0  0  0  0  0  0
   -3.8752    1.9497    1.1674 O   0  0  0  0  0  0  0  0  0  0  0  0
   -3.1996   -0.0977   -0.0163 C   0  0  0  0  0  0  0  0  0  0  0  0
   -3.4010   -0.9381    1.2417 C   0  0  0  0  0  0  0  0  0  0  0  0
   -4.3525   -0.7648    2.0031 O   0  0  0  0  0  0  0  0  0  0  0  0
   -2.4419   -2.0601    1.4747 C   0  0  0  0  0  0  0  0  0  0  0  0
   -2.8871   -3.1707    2.3685 C   0  0  0  0  0  0  0  0  0  0  0  0
   -1.2337   -1.9911    0.8912 C   0  0  0  0  0  0  0  0  0  0  0  0
    2.4562    0.4261    1.9424 H   0  0  0  0  0  0  0  0  0  0  0  0
    2.7126    1.7916    3.0257 H   0  0  0  0  0  0  0  0  0  0  0  0
    4.0474    1.2193    2.0159 H   0  0  0  0  0  0  0  0  0  0  0  0
    1.4527    2.4919    0.9962 H   0  0  0  0  0  0  0  0  0  0  0  0
    2.9684    3.3419    1.1969 H   0  0  0  0  0  0  0  0  0  0  0  0
    2.7101    2.8412   -1.1090 H   0  0  0  0  0  0  0  0  0  0  0  0
    4.0823    1.9597   -0.5063 H   0  0  0  0  0  0  0  0  0  0  0  0
    2.4639    0.8358   -2.1843 H   0  0  0  0  0  0  0  0  0  0  0  0
    3.7578   -0.3690    0.2097 H   0  0  0  0  0  0  0  0  0  0  0  0
    4.1395   -0.5404   -1.4868 H   0  0  0  0  0  0  0  0  0  0  0  0
    4.2893   -3.0958   -0.8071 H   0  0  0  0  0  0  0  0  0  0  0  0
    3.7107   -2.6909    0.8248 H   0  0  0  0  0  0  0  0  0  0  0  0
    2.8330   -3.8652   -0.1364 H   0  0  0  0  0  0  0  0  0  0  0  0
    1.4188   -1.4849   -2.6593 H   0  0  0  0  0  0  0  0  0  0  0  0
    1.4349   -3.1470   -2.1063 H   0  0  0  0  0  0  0  0  0  0  0  0
    2.8949   -2.4399   -2.8344 H   0  0  0  0  0  0  0  0  0  0  0  0
   -2.0353    2.8849   -2.2037 H   0  0  0  0  0  0  0  0  0  0  0  0
   -2.6174    3.2142    0.5416 H   0  0  0  0  0  0  0  0  0  0  0  0
   -4.3880    2.9229   -1.2244 H   0  0  0  0  0  0  0  0  0  0  0  0
   -3.9705    1.4657   -2.1504 H   0  0  0  0  0  0  0  0  0  0  0  0
   -5.1438    0.8878   -0.0392 H   0  0  0  0  0  0  0  0  0  0  0  0
   -4.2468    1.4280    1.9113 H   0  0  0  0  0  0  0  0  0  0  0  0
   -3.5498   -0.7324   -0.8454 H   0  0  0  0  0  0  0  0  0  0  0  0
   -3.0902   -2.7960    3.3769 H   0  0  0  0  0  0  0  0  0  0  0  0
   -2.1270   -3.9547    2.4517 H   0  0  0  0  0  0  0  0  0  0  0  0
   -3.7995   -3.6330    1.9779 H   0  0  0  0  0  0  0  0  0  0  0  0
   -0.5152   -2.7912    1.0581 H   0  0  0  0  0  0  0  0  0  0  0  0
  1  2  1  0
  2  3  1  0
  3  4  1  0
  4  5  1  0
  5  6  1  0
  6  7  1  0
  6  8  1  0
  6  9  1  0
  9 10  1  0
 10 11  2  0
 11 12  1  0
 12 13  2  0
 13 14  1  0
 14 15  2  0
 14 16  1  0
 13 17  1  0
 17 18  1  0
 17 19  1  0
 19 20  1  0
 20 21  1  0
 20 22  1  0
 22 23  1  0
 23 24  2  0
 23 25  1  0
 25 26  1  0
 25 27  2  0
 16  4  1  0
 16 10  1  0
 27 11  1  0
 22 12  1  0
  1 28  1  0
  1 29  1  0
  1 30  1  0
  2 31  1  0
  2 32  1  0
  3 33  1  0
  3 34  1  0
  4 35  1  0
  5 36  1  0
  5 37  1  0
  7 38  1  0
  7 39  1  0
  7 40  1  0
  8 41  1  0
  8 42  1  0
  8 43  1  0
 17 44  1  0
 18 45  1  0
 19 46  1  0
 19 47  1  0
 20 48  1  0
 21 49  1  0
 22 50  1  0
 26 51  1  0
 26 52  1  0
 26 53  1  0
 27 54  1  0
M  END
>  <smiles>
CCCC1CC(C)(C)Oc2c3c4c(c(=O)n21)C(O)CC(O)C4C(=O)C(C)=C3

$$$$
