mol_6b2f2372f731
     RDKit          3D

 53 57  0  0  0  0  0  0  0  0999 V2000
   -6.9365    1.7855    0.6296 O   0  0  0  0  0  0  0  0  0  0  0  0
   -7.2700    0.8822   -0.1190 C   0  0  0  0  0  0  0  0  0  0  0  0
   -8.5838    0.6556   -0.3486 O   0  0  0  0  0  0  0  0  0  0  0  0
   -6.3920   -0.1015   -0.8880 C   0  0  0  0  0  0  0  0  0  0  0  0
   -4.9479    0.1112   -0.6443 N   0  0  0  0  0  0  0  0  0  0  0  0
   -4.5511   -0.3168    0.7016 C   0  0  0  0  0  0  0  0  0  0  0  0
   -3.0983    0.1009    0.9844 C   0  0  0  0  0  0  0  0  0  0  0  0
   -2.1168   -0.2315   -0.1227 C   0  0  0  0  0  0  0  0  0  0  0  0
   -2.6701   -0.5712   -1.3715 C   0  0  0  0  0  0  0  0  0  0  0  0
   -1.8004   -0.9085   -2.3875 C   0  0  0  0  0  0  0  0  0  0  0  0
   -0.4636   -0.9126   -2.2585 N   0  0  0  0  0  0  0  0  0  0  0  0
    0.0907   -0.5481   -1.0901 C   0  0  0  0  0  0  0  0  0  0  0  0
    1.4821   -0.5573   -1.0347 C   0  0  0  0  0  0  0  0  0  0  0  0
    2.1278   -0.1396    0.1229 C   0  0  0  0  0  0  0  0  0  0  0  0
    1.4458    0.2529    1.2123 N   0  0  0  0  0  0  0  0  0  0  0  0
    0.0801    0.2410    1.1741 C   0  0  0  0  0  0  0  0  0  0  0  0
   -0.5308    0.7317    2.4699 C   0  0  0  0  0  0  0  0  0  0  0  0
    0.4758    1.1899    3.3827 O   0  0  0  0  0  0  0  0  0  0  0  0
   -0.6801   -0.1672    0.0377 C   0  0  0  0  0  0  0  0  0  0  0  0
    3.6015   -0.1036    0.2061 C   0  0  0  0  0  0  0  0  0  0  0  0
    4.2816    0.5820    1.2288 C   0  0  0  0  0  0  0  0  0  0  0  0
    5.6834    0.5983    1.2957 C   0  0  0  0  0  0  0  0  0  0  0  0
    6.3921    1.3587    2.3839 C   0  0  0  0  0  0  0  0  0  0  0  0
    6.9173    2.5779    1.8758 O   0  0  0  0  0  0  0  0  0  0  0  0
    6.4194   -0.0747    0.3147 C   0  0  0  0  0  0  0  0  0  0  0  0
    5.7686   -0.7632   -0.7072 C   0  0  0  0  0  0  0  0  0  0  0  0
    4.3691   -0.7715   -0.7714 C   0  0  0  0  0  0  0  0  0  0  0  0
    3.6613   -1.5608   -1.8451 C   0  0  0  0  0  0  0  0  0  0  0  0
    2.3249   -0.9238   -2.2382 C   0  0  0  0  0  0  0  0  0  0  0  0
   -4.1551   -0.6377   -1.6290 C   0  0  0  0  0  0  0  0  0  0  0  0
   -9.0296    1.3504    0.1814 H   0  0  0  0  0  0  0  0  0  0  0  0
   -6.6090    0.0700   -1.9496 H   0  0  0  0  0  0  0  0  0  0  0  0
   -6.6888   -1.1236   -0.6246 H   0  0  0  0  0  0  0  0  0  0  0  0
   -4.6553   -1.4056    0.8088 H   0  0  0  0  0  0  0  0  0  0  0  0
   -5.1817    0.1359    1.4747 H   0  0  0  0  0  0  0  0  0  0  0  0
   -3.0739    1.1838    1.1518 H   0  0  0  0  0  0  0  0  0  0  0  0
   -2.8106   -0.4177    1.9016 H   0  0  0  0  0  0  0  0  0  0  0  0
   -2.1603   -1.2000   -3.3709 H   0  0  0  0  0  0  0  0  0  0  0  0
   -1.0528   -0.0832    2.9748 H   0  0  0  0  0  0  0  0  0  0  0  0
   -1.1970    1.5774    2.2907 H   0  0  0  0  0  0  0  0  0  0  0  0
    1.3210    0.9951    2.9262 H   0  0  0  0  0  0  0  0  0  0  0  0
    3.7082    1.1156    1.9855 H   0  0  0  0  0  0  0  0  0  0  0  0
    7.2143    0.7649    2.7967 H   0  0  0  0  0  0  0  0  0  0  0  0
    5.7115    1.5948    3.2085 H   0  0  0  0  0  0  0  0  0  0  0  0
    6.4260    2.7915    1.0639 H   0  0  0  0  0  0  0  0  0  0  0  0
    7.5075   -0.0655    0.3463 H   0  0  0  0  0  0  0  0  0  0  0  0
    6.3580   -1.2932   -1.4521 H   0  0  0  0  0  0  0  0  0  0  0  0
    4.2903   -1.6435   -2.7393 H   0  0  0  0  0  0  0  0  0  0  0  0
    3.4937   -2.5763   -1.4637 H   0  0  0  0  0  0  0  0  0  0  0  0
    1.8022   -1.6290   -2.8942 H   0  0  0  0  0  0  0  0  0  0  0  0
    2.5039   -0.0071   -2.8152 H   0  0  0  0  0  0  0  0  0  0  0  0
   -4.4501   -1.6958   -1.6453 H   0  0  0  0  0  0  0  0  0  0  0  0
   -4.3524   -0.2174   -2.6235 H   0  0  0  0  0  0  0  0  0  0  0  0
  1  2  2  0
  2  3  1  0
  2  4  1  0
  4  5  1  0
  5  6  1  0
  6  7  1  0
  7  8  1  0
  8  9  2  0
  9 10  1  0
 10 11  2  0
 11 12  1  0
 12 13  2  0
 13 14  1  0
 14 15  2  0
 15 16  1  0
 16 17  1  0
 17 18  1  0
 16 19  2  0
 14 20  1  0
 20 21  2  0
 21 22  1  0
 22 23  1  0
 23 24  1  0
 22 25  2  0
 25 26  1  0
 26 27  2  0
 27 28  1  0
 28 29  1  0
  9 30  1  0
 30  5  1  0
 19  8  1  0
 27 20  1  0
 19 12  1  0
 29 13  1  0
  3 31  1  0
  4 32  1  0
  4 33  1  0
  6 34  1  0
  6 35  1  0
  7 36  1  0
  7 37  1  0
 10 38  1  0
 17 39  1  0
 17 40  1  0
 18 41  1  0
 21 42  1  0
 23 43  1  0
 23 44  1  0
 24 45  1  0
 25 46  1  0
 26 47  1  0
 28 48  1  0
 28 49  1  0
 29 50  1  0
 29 51  1  0
 30 52  1  0
 30 53  1  0
M  END
>  <smiles>
O=C(O)CN1CCc2c(cnc3c4c(nc(CO)c23)-c2cc(CO)ccc2CC4)C1

$$$$
