mol_d013b2932198
     RDKit          3D

 45 48  0  0  0  0  0  0  0  0999 V2000
   -2.5562   -0.2084   -2.2392 O   0  0  0  0  0  0  0  0  0  0  0  0
   -3.1537    0.8490   -2.3077 C   0  0  0  0  0  0  0  0  0  0  0  0
   -3.1482    1.5701   -3.4436 O   0  0  0  0  0  0  0  0  0  0  0  0
   -3.9440    1.4997   -1.2247 C   0  0  0  0  0  0  0  0  0  0  0  0
   -4.8897    2.4781   -1.5704 C   0  0  0  0  0  0  0  0  0  0  0  0
   -5.6519    3.0877   -0.5830 C   0  0  0  0  0  0  0  0  0  0  0  0
   -6.5535    4.0168   -0.9262 F   0  0  0  0  0  0  0  0  0  0  0  0
   -5.4983    2.7477    0.7526 C   0  0  0  0  0  0  0  0  0  0  0  0
   -4.5630    1.7781    1.1113 C   0  0  0  0  0  0  0  0  0  0  0  0
   -3.7754    1.1378    0.1332 C   0  0  0  0  0  0  0  0  0  0  0  0
   -2.7569    0.1112    0.5927 C   0  0  0  0  0  0  0  0  0  0  0  0
   -1.3119    0.5833    0.4595 C   0  0  0  0  0  0  0  0  0  0  0  0
   -1.0170    1.7799    0.4865 O   0  0  0  0  0  0  0  0  0  0  0  0
   -0.3442   -0.3882    0.3597 N   0  0  0  0  0  0  0  0  0  0  0  0
   -0.5562   -1.8311    0.2905 C   0  0  0  0  0  0  0  0  0  0  0  0
    0.8300   -2.3868    0.2390 C   0  0  0  0  0  0  0  0  0  0  0  0
    1.2200   -3.7137    0.1932 C   0  0  0  0  0  0  0  0  0  0  0  0
    2.5838   -3.9957    0.1294 C   0  0  0  0  0  0  0  0  0  0  0  0
    3.5300   -2.9560    0.1094 C   0  0  0  0  0  0  0  0  0  0  0  0
    3.1411   -1.6048    0.1566 C   0  0  0  0  0  0  0  0  0  0  0  0
    4.1427   -0.5357    0.1275 C   0  0  0  0  0  0  0  0  0  0  0  0
    4.9001   -0.2945   -1.0232 C   0  0  0  0  0  0  0  0  0  0  0  0
    5.8381    0.7254   -1.0054 C   0  0  0  0  0  0  0  0  0  0  0  0
    6.0737    1.5095    0.0668 N   0  0  0  0  0  0  0  0  0  0  0  0
    5.3363    1.2635    1.1695 C   0  0  0  0  0  0  0  0  0  0  0  0
    4.3752    0.2681    1.2480 C   0  0  0  0  0  0  0  0  0  0  0  0
    1.7734   -1.3468    0.2229 C   0  0  0  0  0  0  0  0  0  0  0  0
    1.0667   -0.0258    0.2600 C   0  0  0  0  0  0  0  0  0  0  0  0
   -2.5702    1.0613   -4.0495 H   0  0  0  0  0  0  0  0  0  0  0  0
   -5.0466    2.7758   -2.6029 H   0  0  0  0  0  0  0  0  0  0  0  0
   -6.1014    3.2438    1.5066 H   0  0  0  0  0  0  0  0  0  0  0  0
   -4.4423    1.5333    2.1652 H   0  0  0  0  0  0  0  0  0  0  0  0
   -2.9089   -0.1208    1.6549 H   0  0  0  0  0  0  0  0  0  0  0  0
   -2.9381   -0.8270    0.0620 H   0  0  0  0  0  0  0  0  0  0  0  0
   -1.1158   -2.0706   -0.6183 H   0  0  0  0  0  0  0  0  0  0  0  0
   -1.1004   -2.1602    1.1804 H   0  0  0  0  0  0  0  0  0  0  0  0
    0.4900   -4.5168    0.2016 H   0  0  0  0  0  0  0  0  0  0  0  0
    2.9220   -5.0287    0.0925 H   0  0  0  0  0  0  0  0  0  0  0  0
    4.5872   -3.2134    0.0621 H   0  0  0  0  0  0  0  0  0  0  0  0
    4.7591   -0.8848   -1.9228 H   0  0  0  0  0  0  0  0  0  0  0  0
    6.4419    0.9448   -1.8812 H   0  0  0  0  0  0  0  0  0  0  0  0
    5.5446    1.9074    2.0191 H   0  0  0  0  0  0  0  0  0  0  0  0
    3.8241    0.1204    2.1711 H   0  0  0  0  0  0  0  0  0  0  0  0
    1.2225    0.5473   -0.6595 H   0  0  0  0  0  0  0  0  0  0  0  0
    1.3415    0.5701    1.1355 H   0  0  0  0  0  0  0  0  0  0  0  0
  1  2  2  0
  2  3  1  0
  2  4  1  0
  4  5  1  0
  5  6  2  0
  6  7  1  0
  6  8  1  0
  8  9  2  0
  9 10  1  0
 10 11  1  0
 11 12  1  0
 12 13  2  0
 12 14  1  0
 14 15  1  0
 15 16  1  0
 16 17  2  0
 17 18  1  0
 18 19  2  0
 19 20  1  0
 20 21  1  0
 21 22  2  0
 22 23  1  0
 23 24  2  0
 24 25  1  0
 25 26  2  0
 20 27  2  0
 27 28  1  0
 10  4  2  0
 28 14  1  0
 27 16  1  0
 26 21  1  0
  3 29  1  0
  5 30  1  0
  8 31  1  0
  9 32  1  0
 11 33  1  0
 11 34  1  0
 15 35  1  0
 15 36  1  0
 17 37  1  0
 18 38  1  0
 19 39  1  0
 22 40  1  0
 23 41  1  0
 25 42  1  0
 26 43  1  0
 28 44  1  0
 28 45  1  0
M  END
>  <smiles>
O=C(O)c1cc(F)ccc1CC(=O)N1Cc2cccc(-c3ccncc3)c2C1

$$$$
