mol_d4dffb4dfe0a
     RDKit          3D

 55 58  0  0  0  0  0  0  0  0999 V2000
   -3.9751    3.4743    1.9304 C   0  0  0  0  0  0  0  0  0  0  0  0
   -2.9249    2.7333    1.1421 C   0  0  0  0  0  0  0  0  0  0  0  0
   -1.9357    3.4033    0.5175 C   0  0  0  0  0  0  0  0  0  0  0  0
   -0.6827    3.0594   -0.2227 C   0  0  0  0  0  0  0  0  0  0  0  0
    0.1401    3.9314   -0.4854 O   0  0  0  0  0  0  0  0  0  0  0  0
   -0.3655    1.7253   -0.5055 N   0  0  0  0  0  0  0  0  0  0  0  0
    0.9146    1.2262   -0.6325 C   0  0  0  0  0  0  0  0  0  0  0  0
    0.8938   -0.1579   -0.4847 C   0  0  0  0  0  0  0  0  0  0  0  0
    2.1481   -0.9836   -0.4069 C   0  0  0  0  0  0  0  0  0  0  0  0
    2.9892   -0.5309    0.7055 N   0  0  0  0  0  0  0  0  0  0  0  0
    2.5193   -0.8414    2.0495 C   0  0  0  0  0  0  0  0  0  0  0  0
    4.1911    0.1549    0.5635 C   0  0  0  0  0  0  0  0  0  0  0  0
    4.8566    0.5167    1.5361 O   0  0  0  0  0  0  0  0  0  0  0  0
    4.6785    0.4308   -0.8460 C   0  0  0  0  0  0  0  0  0  0  0  0
    5.9653    1.2388   -0.8467 C   0  0  0  0  0  0  0  0  0  0  0  0
    6.3745    1.4553   -2.1945 O   0  0  0  0  0  0  0  0  0  0  0  0
   -0.5020   -0.5331   -0.4241 C   0  0  0  0  0  0  0  0  0  0  0  0
   -1.1885    0.6504   -0.7162 C   0  0  0  0  0  0  0  0  0  0  0  0
   -2.5370    0.8399   -1.1105 C   0  0  0  0  0  0  0  0  0  0  0  0
   -3.4284    0.6063   -0.1400 C   0  0  0  0  0  0  0  0  0  0  0  0
   -3.1606    1.2513    1.1822 C   0  0  0  0  0  0  0  0  0  0  0  0
   -3.2813    0.6512    2.2433 O   0  0  0  0  0  0  0  0  0  0  0  0
   -4.4774   -0.3851   -0.2757 C   0  0  0  0  0  0  0  0  0  0  0  0
   -4.3713   -1.5598   -0.9313 C   0  0  0  0  0  0  0  0  0  0  0  0
   -3.2641   -2.0784   -1.8215 C   0  0  0  0  0  0  0  0  0  0  0  0
   -1.9455   -2.5373   -1.2068 C   0  0  0  0  0  0  0  0  0  0  0  0
   -1.3666   -3.6064   -1.6812 N   0  0  0  0  0  0  0  0  0  0  0  0
   -0.1556   -3.7977   -0.8659 C   0  0  0  0  0  0  0  0  0  0  0  0
   -0.4074   -3.0131    0.4080 C   0  0  0  0  0  0  0  0  0  0  0  0
   -1.2291   -1.8333   -0.0734 C   0  0  0  0  0  0  0  0  0  0  0  0
   -3.8651    4.5611    1.8513 H   0  0  0  0  0  0  0  0  0  0  0  0
   -4.9763    3.2198    1.5659 H   0  0  0  0  0  0  0  0  0  0  0  0
   -3.9141    3.2130    2.9922 H   0  0  0  0  0  0  0  0  0  0  0  0
   -1.9634    4.4914    0.6162 H   0  0  0  0  0  0  0  0  0  0  0  0
    1.7506    1.9141   -0.6793 H   0  0  0  0  0  0  0  0  0  0  0  0
    1.9665   -2.0452   -0.2627 H   0  0  0  0  0  0  0  0  0  0  0  0
    2.6701   -0.9012   -1.3635 H   0  0  0  0  0  0  0  0  0  0  0  0
    1.5341   -0.3936    2.2062 H   0  0  0  0  0  0  0  0  0  0  0  0
    2.4474   -1.9281    2.1514 H   0  0  0  0  0  0  0  0  0  0  0  0
    3.1934   -0.4675    2.8242 H   0  0  0  0  0  0  0  0  0  0  0  0
    3.9134    0.9777   -1.4063 H   0  0  0  0  0  0  0  0  0  0  0  0
    4.8515   -0.5215   -1.3601 H   0  0  0  0  0  0  0  0  0  0  0  0
    5.8190    2.2126   -0.3674 H   0  0  0  0  0  0  0  0  0  0  0  0
    6.7673    0.7073   -0.3236 H   0  0  0  0  0  0  0  0  0  0  0  0
    7.1874    1.9889   -2.1563 H   0  0  0  0  0  0  0  0  0  0  0  0
   -2.7446    0.5526   -2.1362 H   0  0  0  0  0  0  0  0  0  0  0  0
   -5.3728   -0.1976    0.3169 H   0  0  0  0  0  0  0  0  0  0  0  0
   -5.2296   -2.2304   -0.8644 H   0  0  0  0  0  0  0  0  0  0  0  0
   -3.0466   -1.3868   -2.6390 H   0  0  0  0  0  0  0  0  0  0  0  0
   -3.6795   -2.9567   -2.3378 H   0  0  0  0  0  0  0  0  0  0  0  0
    0.7131   -3.4374   -1.4244 H   0  0  0  0  0  0  0  0  0  0  0  0
   -0.0079   -4.8598   -0.6474 H   0  0  0  0  0  0  0  0  0  0  0  0
    0.4893   -2.7684    0.9751 H   0  0  0  0  0  0  0  0  0  0  0  0
   -1.0272   -3.6309    1.0740 H   0  0  0  0  0  0  0  0  0  0  0  0
   -1.9485   -1.6042    0.7209 H   0  0  0  0  0  0  0  0  0  0  0  0
  1  2  1  0
  2  3  2  3
  3  4  1  0
  4  5  2  0
  4  6  1  0
  6  7  1  0
  7  8  2  0
  8  9  1  0
  9 10  1  0
 10 11  1  0
 10 12  1  0
 12 13  2  0
 12 14  1  0
 14 15  1  0
 15 16  1  0
  8 17  1  0
 17 18  2  0
 18 19  1  0
 19 20  2  3
 20 21  1  0
 21 22  2  0
 20 23  1  0
 23 24  2  3
 24 25  1  0
 25 26  1  0
 26 27  2  0
 27 28  1  0
 28 29  1  0
 29 30  1  0
 21  2  1  0
 30 26  1  0
 18  6  1  0
 30 17  1  0
  1 31  1  0
  1 32  1  0
  1 33  1  0
  3 34  1  0
  7 35  1  0
  9 36  1  0
  9 37  1  0
 11 38  1  0
 11 39  1  0
 11 40  1  0
 14 41  1  0
 14 42  1  0
 15 43  1  0
 15 44  1  0
 16 45  1  0
 19 46  1  0
 23 47  1  0
 24 48  1  0
 25 49  1  0
 25 50  1  0
 28 51  1  0
 28 52  1  0
 29 53  1  0
 29 54  1  0
 30 55  1  0
M  END
>  <smiles>
Cc1cc(=O)n2cc(CN(C)C(=O)CCO)c3c2cc(c1=O)C=CCC1=NCCC13

$$$$
