mol_0b608ea44e39
     RDKit          3D

 64 69  0  0  0  0  0  0  0  0999 V2000
   -3.4035    0.9610    2.9857 C   0  0  0  0  0  0  0  0  0  0  0  0
   -2.6093   -0.0449    2.1849 C   0  0  0  0  0  0  0  0  0  0  0  0
   -2.5005   -1.3307    2.7117 C   0  0  0  0  0  0  0  0  0  0  0  0
   -1.8364   -2.3154    2.0062 C   0  0  0  0  0  0  0  0  0  0  0  0
   -1.2280   -2.0424    0.7674 C   0  0  0  0  0  0  0  0  0  0  0  0
   -0.7450   -3.2693    0.0286 C   0  0  0  0  0  0  0  0  0  0  0  0
   -1.2045   -0.7055    0.2264 C   0  0  0  0  0  0  0  0  0  0  0  0
   -0.4704   -0.2532   -0.9501 C   0  0  0  0  0  0  0  0  0  0  0  0
   -0.8177    0.9796   -1.5059 C   0  0  0  0  0  0  0  0  0  0  0  0
   -1.5859    1.9164   -0.7714 C   0  0  0  0  0  0  0  0  0  0  0  0
   -2.1393    1.5820    0.4350 C   0  0  0  0  0  0  0  0  0  0  0  0
   -1.9902    0.2767    0.9458 C   0  0  0  0  0  0  0  0  0  0  0  0
   -1.5933    3.1095   -1.4354 N   0  0  0  0  0  0  0  0  0  0  0  0
   -2.1259    4.4364   -1.2850 C   0  0  0  0  0  0  0  0  0  0  0  0
   -1.6119    5.1263   -2.5925 C   0  0  0  0  0  0  0  0  0  0  0  0
   -0.8428    4.0451   -3.3297 C   0  0  0  0  0  0  0  0  0  0  0  0
   -0.8735    2.9382   -2.5912 C   0  0  0  0  0  0  0  0  0  0  0  0
   -0.4169    1.6447   -2.7216 N   0  0  0  0  0  0  0  0  0  0  0  0
    0.1302    1.1359   -3.8803 C   0  0  0  0  0  0  0  0  0  0  0  0
    0.7712    1.8104   -4.6917 O   0  0  0  0  0  0  0  0  0  0  0  0
   -0.2132   -0.3034   -4.2228 C   0  0  0  0  0  0  0  0  0  0  0  0
    0.9032   -1.2840   -3.9081 C   0  0  0  0  0  0  0  0  0  0  0  0
    0.7648   -1.8936   -2.5127 C   0  0  0  0  0  0  0  0  0  0  0  0
    0.8710   -0.8404   -1.4020 C   0  0  0  0  0  0  0  0  0  0  0  0
    1.6842   -1.2600   -0.2702 N   0  0  0  0  0  0  0  0  0  0  0  0
    3.0455   -1.4434   -0.3353 C   0  0  0  0  0  0  0  0  0  0  0  0
    3.6821   -1.3656   -1.3830 O   0  0  0  0  0  0  0  0  0  0  0  0
    3.6938   -1.8977    0.9781 C   0  0  0  0  0  0  0  0  0  0  0  0
    2.9968   -1.4388    2.1759 N   0  0  0  0  0  0  0  0  0  0  0  0
    3.0836   -0.0788    2.6447 C   0  0  0  0  0  0  0  0  0  0  0  0
    2.5321   -0.1668    4.0548 C   0  0  0  0  0  0  0  0  0  0  0  0
    1.5212   -1.3055    3.9820 C   0  0  0  0  0  0  0  0  0  0  0  0
    2.0791   -2.1876    2.8923 C   0  0  0  0  0  0  0  0  0  0  0  0
    1.7260   -3.3280    2.6465 O   0  0  0  0  0  0  0  0  0  0  0  0
   -2.7718    1.8101    3.2661 H   0  0  0  0  0  0  0  0  0  0  0  0
   -3.7886    0.5264    3.9149 H   0  0  0  0  0  0  0  0  0  0  0  0
   -4.2672    1.3103    2.4108 H   0  0  0  0  0  0  0  0  0  0  0  0
   -2.9670   -1.5879    3.6602 H   0  0  0  0  0  0  0  0  0  0  0  0
   -1.8192   -3.3238    2.4187 H   0  0  0  0  0  0  0  0  0  0  0  0
   -1.2554   -3.3418   -0.9348 H   0  0  0  0  0  0  0  0  0  0  0  0
    0.3357   -3.2963   -0.0936 H   0  0  0  0  0  0  0  0  0  0  0  0
   -1.0047   -4.1896    0.5660 H   0  0  0  0  0  0  0  0  0  0  0  0
   -2.7049    2.3441    0.9595 H   0  0  0  0  0  0  0  0  0  0  0  0
   -1.7301    4.9360   -0.3949 H   0  0  0  0  0  0  0  0  0  0  0  0
   -3.2201    4.4335   -1.2469 H   0  0  0  0  0  0  0  0  0  0  0  0
   -0.9608    5.9733   -2.3539 H   0  0  0  0  0  0  0  0  0  0  0  0
   -2.4519    5.4863   -3.1951 H   0  0  0  0  0  0  0  0  0  0  0  0
   -0.3614    4.1606   -4.2882 H   0  0  0  0  0  0  0  0  0  0  0  0
   -1.1669   -0.6006   -3.7737 H   0  0  0  0  0  0  0  0  0  0  0  0
   -0.3895   -0.3143   -5.3070 H   0  0  0  0  0  0  0  0  0  0  0  0
    0.8621   -2.1052   -4.6344 H   0  0  0  0  0  0  0  0  0  0  0  0
    1.8872   -0.8132   -4.0194 H   0  0  0  0  0  0  0  0  0  0  0  0
    1.5478   -2.6537   -2.4047 H   0  0  0  0  0  0  0  0  0  0  0  0
   -0.1887   -2.4255   -2.4743 H   0  0  0  0  0  0  0  0  0  0  0  0
    1.4695   -0.0083   -1.7979 H   0  0  0  0  0  0  0  0  0  0  0  0
    1.2499   -1.3825    0.6352 H   0  0  0  0  0  0  0  0  0  0  0  0
    3.7059   -2.9927    0.9728 H   0  0  0  0  0  0  0  0  0  0  0  0
    4.7226   -1.5266    1.0174 H   0  0  0  0  0  0  0  0  0  0  0  0
    2.4619    0.5549    2.0041 H   0  0  0  0  0  0  0  0  0  0  0  0
    4.1189    0.2726    2.6281 H   0  0  0  0  0  0  0  0  0  0  0  0
    3.3356   -0.4378    4.7513 H   0  0  0  0  0  0  0  0  0  0  0  0
    2.0922    0.7733    4.3990 H   0  0  0  0  0  0  0  0  0  0  0  0
    0.5371   -0.9415    3.6739 H   0  0  0  0  0  0  0  0  0  0  0  0
    1.4454   -1.8472    4.9275 H   0  0  0  0  0  0  0  0  0  0  0  0
  1  2  1  0
  2  3  1  0
  3  4  2  0
  4  5  1  0
  5  6  1  0
  5  7  2  0
  7  8  1  0
  8  9  2  0
  9 10  1  0
 10 11  2  0
 11 12  1  0
 10 13  1  0
 13 14  1  0
 14 15  1  0
 15 16  1  0
 16 17  2  0
 17 18  1  0
 18 19  1  0
 19 20  2  0
 19 21  1  0
 21 22  1  0
 22 23  1  0
 23 24  1  0
 24 25  1  0
 25 26  1  0
 26 27  2  0
 26 28  1  0
 28 29  1  0
 29 30  1  0
 30 31  1  0
 31 32  1  0
 32 33  1  0
 33 34  2  0
 12  2  2  0
 17 13  1  0
 33 29  1  0
 12  7  1  0
 24  8  1  0
 18  9  1  0
  1 35  1  0
  1 36  1  0
  1 37  1  0
  3 38  1  0
  4 39  1  0
  6 40  1  0
  6 41  1  0
  6 42  1  0
 11 43  1  0
 14 44  1  0
 14 45  1  0
 15 46  1  0
 15 47  1  0
 16 48  1  0
 21 49  1  0
 21 50  1  0
 22 51  1  0
 22 52  1  0
 23 53  1  0
 23 54  1  0
 24 55  1  0
 25 56  1  0
 28 57  1  0
 28 58  1  0
 30 59  1  0
 30 60  1  0
 31 61  1  0
 31 62  1  0
 32 63  1  0
 32 64  1  0
M  END
>  <smiles>
Cc1ccc(C)c2c3c4c(cc12)N1CCC=C1N4C(=O)CCCC3NC(=O)CN1CCCC1=O

$$$$
