mol_18dbfbffccbe
     RDKit          3D

 44 46  0  0  0  0  0  0  0  0999 V2000
   -4.5875   -2.7362   -0.8133 C   0  0  0  0  0  0  0  0  0  0  0  0
   -3.4627   -1.7339   -0.6292 C   0  0  0  0  0  0  0  0  0  0  0  0
   -2.7446   -1.8652    0.7208 C   0  0  0  0  0  0  0  0  0  0  0  0
   -2.0919   -0.4884    0.9393 C   0  0  0  0  0  0  0  0  0  0  0  0
   -0.6187   -0.2909    0.6642 C   0  0  0  0  0  0  0  0  0  0  0  0
    0.3197   -1.3291    0.6878 C   0  0  0  0  0  0  0  0  0  0  0  0
    1.6806   -1.0699    0.4896 C   0  0  0  0  0  0  0  0  0  0  0  0
    2.1260    0.2327    0.2874 C   0  0  0  0  0  0  0  0  0  0  0  0
    3.4181    0.6296    0.0896 O   0  0  0  0  0  0  0  0  0  0  0  0
    4.4707   -0.3304    0.1884 C   0  0  0  0  0  0  0  0  0  0  0  0
    4.6954   -0.9861   -1.1699 C   0  0  0  0  0  0  0  0  0  0  0  0
    5.7413    0.4044    0.6124 C   0  0  0  0  0  0  0  0  0  0  0  0
    5.8854    1.5967    0.8294 O   0  0  0  0  0  0  0  0  0  0  0  0
    6.7921   -0.4309    0.7845 O   0  0  0  0  0  0  0  0  0  0  0  0
    1.1963    1.2768    0.2738 C   0  0  0  0  0  0  0  0  0  0  0  0
   -0.1750    1.0383    0.4537 C   0  0  0  0  0  0  0  0  0  0  0  0
   -1.2186    2.1630    0.4935 C   0  0  0  0  0  0  0  0  0  0  0  0
   -0.7999    3.5175   -0.1043 C   0  0  0  0  0  0  0  0  0  0  0  0
   -0.3591    3.3956   -1.4547 O   0  0  0  0  0  0  0  0  0  0  0  0
   -2.5597    1.7230   -0.1169 C   0  0  0  0  0  0  0  0  0  0  0  0
   -3.3307    2.4879   -0.6946 O   0  0  0  0  0  0  0  0  0  0  0  0
   -2.8668    0.3952    0.0807 N   0  0  0  0  0  0  0  0  0  0  0  0
   -3.9411   -0.2866   -0.6048 C   0  0  0  0  0  0  0  0  0  0  0  0
   -5.3435   -2.6413   -0.0266 H   0  0  0  0  0  0  0  0  0  0  0  0
   -4.2000   -3.7598   -0.7867 H   0  0  0  0  0  0  0  0  0  0  0  0
   -5.0840   -2.5853   -1.7773 H   0  0  0  0  0  0  0  0  0  0  0  0
   -2.7261   -1.8601   -1.4339 H   0  0  0  0  0  0  0  0  0  0  0  0
   -3.4889   -2.0303    1.5118 H   0  0  0  0  0  0  0  0  0  0  0  0
   -2.0647   -2.7188    0.7435 H   0  0  0  0  0  0  0  0  0  0  0  0
   -2.2629   -0.1801    1.9798 H   0  0  0  0  0  0  0  0  0  0  0  0
    0.0206   -2.3572    0.8680 H   0  0  0  0  0  0  0  0  0  0  0  0
    2.3592   -1.9155    0.4997 H   0  0  0  0  0  0  0  0  0  0  0  0
    4.2718   -1.0621    0.9799 H   0  0  0  0  0  0  0  0  0  0  0  0
    4.9651   -0.2359   -1.9223 H   0  0  0  0  0  0  0  0  0  0  0  0
    3.7886   -1.4813   -1.5302 H   0  0  0  0  0  0  0  0  0  0  0  0
    5.4985   -1.7287   -1.1301 H   0  0  0  0  0  0  0  0  0  0  0  0
    7.5153    0.1707    1.0635 H   0  0  0  0  0  0  0  0  0  0  0  0
    1.5686    2.2854    0.1095 H   0  0  0  0  0  0  0  0  0  0  0  0
   -1.4303    2.3432    1.5579 H   0  0  0  0  0  0  0  0  0  0  0  0
    0.0191    3.9578    0.4748 H   0  0  0  0  0  0  0  0  0  0  0  0
   -1.6321    4.2302   -0.0783 H   0  0  0  0  0  0  0  0  0  0  0  0
   -0.3870    4.2849   -1.8471 H   0  0  0  0  0  0  0  0  0  0  0  0
   -4.8528   -0.1578   -0.0106 H   0  0  0  0  0  0  0  0  0  0  0  0
   -4.1036    0.1286   -1.6040 H   0  0  0  0  0  0  0  0  0  0  0  0
  1  2  1  0
  2  3  1  0
  3  4  1  0
  4  5  1  0
  5  6  1  0
  6  7  2  0
  7  8  1  0
  8  9  1  0
  9 10  1  0
 10 11  1  0
 10 12  1  0
 12 13  2  0
 12 14  1  0
  8 15  2  0
 15 16  1  0
 16 17  1  0
 17 18  1  0
 18 19  1  0
 17 20  1  0
 20 21  2  0
 20 22  1  0
 22 23  1  0
 23  2  1  0
 22  4  1  0
 16  5  2  0
  1 24  1  0
  1 25  1  0
  1 26  1  0
  2 27  1  0
  3 28  1  0
  3 29  1  0
  4 30  1  0
  6 31  1  0
  7 32  1  0
 10 33  1  0
 11 34  1  0
 11 35  1  0
 11 36  1  0
 14 37  1  0
 15 38  1  0
 17 39  1  0
 18 40  1  0
 18 41  1  0
 19 42  1  0
 23 43  1  0
 23 44  1  0
M  END
>  <smiles>
CC1CC2c3ccc(OC(C)C(=O)O)cc3C(CO)C(=O)N2C1

$$$$
