mol_d35f15f114e5
     RDKit          3D

 59 62  0  0  0  0  0  0  0  0999 V2000
   -4.7338    3.2021    2.3272 C   0  0  0  0  0  0  0  0  0  0  0  0
   -3.8291    2.2283    1.6490 C   0  0  0  0  0  0  0  0  0  0  0  0
   -3.9837    1.8124    0.3814 C   0  0  0  0  0  0  0  0  0  0  0  0
   -3.1012    0.9066   -0.2826 C   0  0  0  0  0  0  0  0  0  0  0  0
   -2.6643   -0.3910    0.1064 C   0  0  0  0  0  0  0  0  0  0  0  0
   -1.6661   -0.7744   -0.7839 C   0  0  0  0  0  0  0  0  0  0  0  0
   -1.7138    0.1170   -1.8408 N   0  0  0  0  0  0  0  0  0  0  0  0
   -1.1390   -0.0547   -3.1566 C   0  0  0  0  0  0  0  0  0  0  0  0
   -2.4921    1.2096   -1.4887 C   0  0  0  0  0  0  0  0  0  0  0  0
   -2.5889    2.4406   -2.3273 C   0  0  0  0  0  0  0  0  0  0  0  0
   -0.8185   -1.8428   -0.6169 N   0  0  0  0  0  0  0  0  0  0  0  0
    0.3683   -2.1388   -1.4159 C   0  0  0  0  0  0  0  0  0  0  0  0
    1.5412   -1.2111   -1.1642 C   0  0  0  0  0  0  0  0  0  0  0  0
    2.7216   -1.4617   -1.9771 C   0  0  0  0  0  0  0  0  0  0  0  0
    3.8140   -0.6990   -1.8543 C   0  0  0  0  0  0  0  0  0  0  0  0
    3.8597    0.3470   -0.9526 N   0  0  0  0  0  0  0  0  0  0  0  0
    5.0787    1.1442   -0.8368 C   0  0  0  0  0  0  0  0  0  0  0  0
    6.0330    0.5655    0.2044 C   0  0  0  0  0  0  0  0  0  0  0  0
    7.2667    1.4389    0.3669 C   0  0  0  0  0  0  0  0  0  0  0  0
    8.1545    0.8481    1.3068 O   0  0  0  0  0  0  0  0  0  0  0  0
    2.7881    0.6455   -0.1113 C   0  0  0  0  0  0  0  0  0  0  0  0
    2.7982    1.5368    0.7338 O   0  0  0  0  0  0  0  0  0  0  0  0
    1.5777   -0.2028   -0.2738 C   0  0  0  0  0  0  0  0  0  0  0  0
   -0.8938   -2.5921    0.6548 C   0  0  0  0  0  0  0  0  0  0  0  0
   -2.1487   -2.3713    1.4673 C   0  0  0  0  0  0  0  0  0  0  0  0
   -2.4471   -3.2543    2.5212 C   0  0  0  0  0  0  0  0  0  0  0  0
   -3.5978   -3.0806    3.2874 C   0  0  0  0  0  0  0  0  0  0  0  0
   -4.4624   -2.0288    3.0043 C   0  0  0  0  0  0  0  0  0  0  0  0
   -4.1683   -1.1409    1.9662 C   0  0  0  0  0  0  0  0  0  0  0  0
   -2.9991   -1.2834    1.2087 C   0  0  0  0  0  0  0  0  0  0  0  0
   -4.1644    4.0804    2.6460 H   0  0  0  0  0  0  0  0  0  0  0  0
   -5.1799    2.7405    3.2133 H   0  0  0  0  0  0  0  0  0  0  0  0
   -5.5444    3.5394    1.6736 H   0  0  0  0  0  0  0  0  0  0  0  0
   -2.9949    1.8513    2.2382 H   0  0  0  0  0  0  0  0  0  0  0  0
   -4.7958    2.2234   -0.2140 H   0  0  0  0  0  0  0  0  0  0  0  0
   -0.0725    0.1690   -3.1093 H   0  0  0  0  0  0  0  0  0  0  0  0
   -1.6173    0.6187   -3.8714 H   0  0  0  0  0  0  0  0  0  0  0  0
   -1.3348   -1.0737   -3.4968 H   0  0  0  0  0  0  0  0  0  0  0  0
   -2.9663    3.2913   -1.7515 H   0  0  0  0  0  0  0  0  0  0  0  0
   -3.2688    2.2750   -3.1690 H   0  0  0  0  0  0  0  0  0  0  0  0
   -1.6072    2.7290   -2.7172 H   0  0  0  0  0  0  0  0  0  0  0  0
    0.7028   -3.1615   -1.1899 H   0  0  0  0  0  0  0  0  0  0  0  0
    0.1235   -2.1709   -2.4802 H   0  0  0  0  0  0  0  0  0  0  0  0
    2.7076   -2.2809   -2.6899 H   0  0  0  0  0  0  0  0  0  0  0  0
    4.7002   -0.8791   -2.4557 H   0  0  0  0  0  0  0  0  0  0  0  0
    4.8056    2.1688   -0.5562 H   0  0  0  0  0  0  0  0  0  0  0  0
    5.5644    1.2030   -1.8187 H   0  0  0  0  0  0  0  0  0  0  0  0
    5.5283    0.4615    1.1733 H   0  0  0  0  0  0  0  0  0  0  0  0
    6.3353   -0.4511   -0.0770 H   0  0  0  0  0  0  0  0  0  0  0  0
    7.8017    1.5378   -0.5827 H   0  0  0  0  0  0  0  0  0  0  0  0
    7.0044    2.4418    0.7188 H   0  0  0  0  0  0  0  0  0  0  0  0
    7.6908    0.8111    2.1618 H   0  0  0  0  0  0  0  0  0  0  0  0
    0.7448    0.0541    0.3693 H   0  0  0  0  0  0  0  0  0  0  0  0
   -0.8235   -3.6633    0.4260 H   0  0  0  0  0  0  0  0  0  0  0  0
   -0.0345   -2.3247    1.2826 H   0  0  0  0  0  0  0  0  0  0  0  0
   -1.7830   -4.0864    2.7430 H   0  0  0  0  0  0  0  0  0  0  0  0
   -3.8250   -3.7701    4.0960 H   0  0  0  0  0  0  0  0  0  0  0  0
   -5.3717   -1.8983    3.5849 H   0  0  0  0  0  0  0  0  0  0  0  0
   -4.8795   -0.3507    1.7499 H   0  0  0  0  0  0  0  0  0  0  0  0
  1  2  1  0
  2  3  2  3
  3  4  1  0
  4  5  1  0
  5  6  2  0
  6  7  1  0
  7  8  1  0
  7  9  1  0
  9 10  1  0
  6 11  1  0
 11 12  1  0
 12 13  1  0
 13 14  1  0
 14 15  2  0
 15 16  1  0
 16 17  1  0
 17 18  1  0
 18 19  1  0
 19 20  1  0
 16 21  1  0
 21 22  2  0
 21 23  1  0
 11 24  1  0
 24 25  1  0
 25 26  2  0
 26 27  1  0
 27 28  2  0
 28 29  1  0
 29 30  2  0
  9  4  2  0
 23 13  2  0
 30 25  1  0
 30  5  1  0
  1 31  1  0
  1 32  1  0
  1 33  1  0
  2 34  1  0
  3 35  1  0
  8 36  1  0
  8 37  1  0
  8 38  1  0
 10 39  1  0
 10 40  1  0
 10 41  1  0
 12 42  1  0
 12 43  1  0
 14 44  1  0
 15 45  1  0
 17 46  1  0
 17 47  1  0
 18 48  1  0
 18 49  1  0
 19 50  1  0
 19 51  1  0
 20 52  1  0
 23 53  1  0
 24 54  1  0
 24 55  1  0
 26 56  1  0
 27 57  1  0
 28 58  1  0
 29 59  1  0
M  END
>  <smiles>
CC=Cc1c2c(n(C)c1C)N(Cc1ccn(CCCO)c(=O)c1)Cc1ccccc1-2

$$$$
