mol_597d5a8d2176
     RDKit          3D

 58 61  0  0  0  0  0  0  0  0999 V2000
   -5.5252   -1.7158    0.4066 C   0  0  0  0  0  0  0  0  0  0  0  0
   -4.9864   -1.0124   -0.8136 C   0  0  0  0  0  0  0  0  0  0  0  0
   -5.0493   -1.6983   -2.0376 C   0  0  0  0  0  0  0  0  0  0  0  0
   -4.5854   -1.1116   -3.2072 C   0  0  0  0  0  0  0  0  0  0  0  0
   -4.0683    0.1772   -3.1718 C   0  0  0  0  0  0  0  0  0  0  0  0
   -4.0107    0.9064   -1.9706 C   0  0  0  0  0  0  0  0  0  0  0  0
   -3.4263    2.2923   -2.0497 C   0  0  0  0  0  0  0  0  0  0  0  0
   -4.4516    0.3054   -0.7652 C   0  0  0  0  0  0  0  0  0  0  0  0
   -4.3585    1.0378    0.5653 C   0  0  0  0  0  0  0  0  0  0  0  0
   -2.9981    1.0323    1.2815 C   0  0  0  0  0  0  0  0  0  0  0  0
   -2.1977   -0.2726    1.2607 C   0  0  0  0  0  0  0  0  0  0  0  0
   -0.8130    0.1572    1.1789 N   0  0  0  0  0  0  0  0  0  0  0  0
    0.2855   -0.7254    1.3381 C   0  0  0  0  0  0  0  0  0  0  0  0
    0.0791   -2.1101    1.4615 C   0  0  0  0  0  0  0  0  0  0  0  0
    1.1518   -2.9962    1.6171 C   0  0  0  0  0  0  0  0  0  0  0  0
    2.4551   -2.5121    1.6457 C   0  0  0  0  0  0  0  0  0  0  0  0
    2.6796   -1.1421    1.5095 C   0  0  0  0  0  0  0  0  0  0  0  0
    4.0692   -0.6379    1.5873 C   0  0  0  0  0  0  0  0  0  0  0  0
    4.7373   -0.9944    2.5566 O   0  0  0  0  0  0  0  0  0  0  0  0
    4.5529    0.2014    0.5860 N   0  0  0  0  0  0  0  0  0  0  0  0
    3.8857    0.4859   -0.6880 C   0  0  0  0  0  0  0  0  0  0  0  0
    4.8269    0.2531   -1.8697 C   0  0  0  0  0  0  0  0  0  0  0  0
    6.1496    0.9938   -1.6924 C   0  0  0  0  0  0  0  0  0  0  0  0
    6.7917    0.6356   -0.3545 C   0  0  0  0  0  0  0  0  0  0  0  0
    5.8253    0.8857    0.7986 C   0  0  0  0  0  0  0  0  0  0  0  0
    1.6020   -0.2532    1.3856 C   0  0  0  0  0  0  0  0  0  0  0  0
   -0.7555    1.5165    0.8263 C   0  0  0  0  0  0  0  0  0  0  0  0
    0.2071    2.2198    0.5686 O   0  0  0  0  0  0  0  0  0  0  0  0
   -2.0544    2.0035    0.7987 N   0  0  0  0  0  0  0  0  0  0  0  0
   -5.7744   -2.7609    0.1926 H   0  0  0  0  0  0  0  0  0  0  0  0
   -4.7828   -1.7258    1.2100 H   0  0  0  0  0  0  0  0  0  0  0  0
   -6.4389   -1.2227    0.7528 H   0  0  0  0  0  0  0  0  0  0  0  0
   -5.4618   -2.7041   -2.0868 H   0  0  0  0  0  0  0  0  0  0  0  0
   -4.6305   -1.6552   -4.1469 H   0  0  0  0  0  0  0  0  0  0  0  0
   -3.7092    0.6214   -4.0987 H   0  0  0  0  0  0  0  0  0  0  0  0
   -3.8777    2.9747   -1.3261 H   0  0  0  0  0  0  0  0  0  0  0  0
   -3.6119    2.7345   -3.0355 H   0  0  0  0  0  0  0  0  0  0  0  0
   -2.3443    2.2529   -1.8963 H   0  0  0  0  0  0  0  0  0  0  0  0
   -5.0958    0.6150    1.2576 H   0  0  0  0  0  0  0  0  0  0  0  0
   -4.7056    2.0699    0.4331 H   0  0  0  0  0  0  0  0  0  0  0  0
   -3.1737    1.3215    2.3266 H   0  0  0  0  0  0  0  0  0  0  0  0
   -2.3768   -0.8521    2.1724 H   0  0  0  0  0  0  0  0  0  0  0  0
   -2.3979   -0.8921    0.3828 H   0  0  0  0  0  0  0  0  0  0  0  0
   -0.9192   -2.5367    1.4299 H   0  0  0  0  0  0  0  0  0  0  0  0
    0.9668   -4.0627    1.7176 H   0  0  0  0  0  0  0  0  0  0  0  0
    3.2925   -3.1925    1.7805 H   0  0  0  0  0  0  0  0  0  0  0  0
    3.5579    1.5314   -0.6591 H   0  0  0  0  0  0  0  0  0  0  0  0
    3.0036   -0.1420   -0.8291 H   0  0  0  0  0  0  0  0  0  0  0  0
    4.3422    0.5715   -2.7992 H   0  0  0  0  0  0  0  0  0  0  0  0
    5.0298   -0.8213   -1.9627 H   0  0  0  0  0  0  0  0  0  0  0  0
    6.8310    0.7406   -2.5121 H   0  0  0  0  0  0  0  0  0  0  0  0
    5.9747    2.0755   -1.7394 H   0  0  0  0  0  0  0  0  0  0  0  0
    7.7049    1.2231   -0.2102 H   0  0  0  0  0  0  0  0  0  0  0  0
    7.0828   -0.4221   -0.3648 H   0  0  0  0  0  0  0  0  0  0  0  0
    6.2898    0.5807    1.7416 H   0  0  0  0  0  0  0  0  0  0  0  0
    5.6042    1.9568    0.8809 H   0  0  0  0  0  0  0  0  0  0  0  0
    1.8212    0.8094    1.3479 H   0  0  0  0  0  0  0  0  0  0  0  0
   -2.2192    2.9894    0.6469 H   0  0  0  0  0  0  0  0  0  0  0  0
  1  2  1  0
  2  3  1  0
  3  4  2  0
  4  5  1  0
  5  6  2  0
  6  7  1  0
  6  8  1  0
  8  9  1  0
  9 10  1  0
 10 11  1  0
 11 12  1  0
 12 13  1  0
 13 14  2  0
 14 15  1  0
 15 16  2  0
 16 17  1  0
 17 18  1  0
 18 19  2  0
 18 20  1  0
 20 21  1  0
 21 22  1  0
 22 23  1  0
 23 24  1  0
 24 25  1  0
 17 26  2  0
 12 27  1  0
 27 28  2  0
 27 29  1  0
  8  2  2  0
 29 10  1  0
 26 13  1  0
 25 20  1  0
  1 30  1  0
  1 31  1  0
  1 32  1  0
  3 33  1  0
  4 34  1  0
  5 35  1  0
  7 36  1  0
  7 37  1  0
  7 38  1  0
  9 39  1  0
  9 40  1  0
 10 41  1  0
 11 42  1  0
 11 43  1  0
 14 44  1  0
 15 45  1  0
 16 46  1  0
 21 47  1  0
 21 48  1  0
 22 49  1  0
 22 50  1  0
 23 51  1  0
 23 52  1  0
 24 53  1  0
 24 54  1  0
 25 55  1  0
 25 56  1  0
 26 57  1  0
 29 58  1  0
M  END
>  <smiles>
Cc1cccc(C)c1CC1CN(c2cccc(C(=O)N3CCCCC3)c2)C(=O)N1

$$$$
