mol_9773f1e3de79
     RDKit          3D

 53 55  0  0  0  0  0  0  0  0999 V2000
   -4.8493   -3.9012   -0.6629 C   0  0  0  0  0  0  0  0  0  0  0  0
   -4.1565   -3.5804    0.6537 C   0  0  0  0  0  0  0  0  0  0  0  0
   -2.9328   -2.7146    0.4573 C   0  0  0  0  0  0  0  0  0  0  0  0
   -3.1129   -1.3194    0.4517 C   0  0  0  0  0  0  0  0  0  0  0  0
   -2.0317   -0.4409    0.2855 C   0  0  0  0  0  0  0  0  0  0  0  0
   -0.7283   -0.9342    0.1118 C   0  0  0  0  0  0  0  0  0  0  0  0
   -0.5536   -2.3289    0.0867 C   0  0  0  0  0  0  0  0  0  0  0  0
   -1.6340   -3.2210    0.2653 C   0  0  0  0  0  0  0  0  0  0  0  0
   -1.3613   -4.6871    0.2145 C   0  0  0  0  0  0  0  0  0  0  0  0
   -2.1358   -5.5769   -0.0761 O   0  0  0  0  0  0  0  0  0  0  0  0
   -0.0914   -4.9740    0.5624 O   0  0  0  0  0  0  0  0  0  0  0  0
    0.4104    0.0535   -0.1246 C   0  0  0  0  0  0  0  0  0  0  0  0
    1.8198   -0.4936    0.2138 C   0  0  0  0  0  0  0  0  0  0  0  0
    2.9398    0.4855   -0.0589 C   0  0  0  0  0  0  0  0  0  0  0  0
    3.3258    0.7225   -1.3905 C   0  0  0  0  0  0  0  0  0  0  0  0
    4.2985    1.6819   -1.7067 C   0  0  0  0  0  0  0  0  0  0  0  0
    4.7165    1.8988   -3.1314 C   0  0  0  0  0  0  0  0  0  0  0  0
    4.9064    2.4013   -0.6735 C   0  0  0  0  0  0  0  0  0  0  0  0
    4.5362    2.1762    0.6514 C   0  0  0  0  0  0  0  0  0  0  0  0
    3.5718    1.2188    0.9507 C   0  0  0  0  0  0  0  0  0  0  0  0
    3.2655    1.0536    2.2701 O   0  0  0  0  0  0  0  0  0  0  0  0
    0.1224    1.3419    0.6701 C   0  0  0  0  0  0  0  0  0  0  0  0
   -1.2154    1.8622    0.4221 N   0  0  0  0  0  0  0  0  0  0  0  0
   -1.4178    3.3064    0.4525 C   0  0  0  0  0  0  0  0  0  0  0  0
   -1.3115    3.9328   -0.9380 C   0  0  0  0  0  0  0  0  0  0  0  0
   -1.5763    5.3309   -0.8828 O   0  0  0  0  0  0  0  0  0  0  0  0
   -2.3073    1.0231    0.2731 C   0  0  0  0  0  0  0  0  0  0  0  0
   -3.4551    1.4317    0.1277 O   0  0  0  0  0  0  0  0  0  0  0  0
   -5.7238   -4.5349   -0.4845 H   0  0  0  0  0  0  0  0  0  0  0  0
   -5.1911   -2.9880   -1.1620 H   0  0  0  0  0  0  0  0  0  0  0  0
   -4.1836   -4.4274   -1.3540 H   0  0  0  0  0  0  0  0  0  0  0  0
   -4.8650   -3.0582    1.3101 H   0  0  0  0  0  0  0  0  0  0  0  0
   -3.9044   -4.4979    1.1950 H   0  0  0  0  0  0  0  0  0  0  0  0
   -4.1141   -0.9058    0.5790 H   0  0  0  0  0  0  0  0  0  0  0  0
    0.4318   -2.7523   -0.0907 H   0  0  0  0  0  0  0  0  0  0  0  0
   -0.0563   -5.9529    0.5094 H   0  0  0  0  0  0  0  0  0  0  0  0
    0.3793    0.2985   -1.1962 H   0  0  0  0  0  0  0  0  0  0  0  0
    1.8444   -0.8413    1.2529 H   0  0  0  0  0  0  0  0  0  0  0  0
    2.0351   -1.3843   -0.3902 H   0  0  0  0  0  0  0  0  0  0  0  0
    2.8544    0.1614   -2.1964 H   0  0  0  0  0  0  0  0  0  0  0  0
    5.5273    1.2115   -3.3918 H   0  0  0  0  0  0  0  0  0  0  0  0
    5.0607    2.9268   -3.2863 H   0  0  0  0  0  0  0  0  0  0  0  0
    3.8766    1.7319   -3.8139 H   0  0  0  0  0  0  0  0  0  0  0  0
    5.6699    3.1442   -0.8930 H   0  0  0  0  0  0  0  0  0  0  0  0
    5.0056    2.7434    1.4506 H   0  0  0  0  0  0  0  0  0  0  0  0
    3.2141    0.0990    2.4432 H   0  0  0  0  0  0  0  0  0  0  0  0
    0.2011    1.1650    1.7501 H   0  0  0  0  0  0  0  0  0  0  0  0
    0.8379    2.1244    0.3973 H   0  0  0  0  0  0  0  0  0  0  0  0
   -2.4077    3.5288    0.8692 H   0  0  0  0  0  0  0  0  0  0  0  0
   -0.6946    3.7618    1.1395 H   0  0  0  0  0  0  0  0  0  0  0  0
   -0.3042    3.7943   -1.3440 H   0  0  0  0  0  0  0  0  0  0  0  0
   -2.0166    3.4726   -1.6384 H   0  0  0  0  0  0  0  0  0  0  0  0
   -2.5190    5.4306   -0.6598 H   0  0  0  0  0  0  0  0  0  0  0  0
  1  2  1  0
  2  3  1  0
  3  4  1  0
  4  5  2  0
  5  6  1  0
  6  7  2  0
  7  8  1  0
  8  9  1  0
  9 10  2  0
  9 11  1  0
  6 12  1  0
 12 13  1  0
 13 14  1  0
 14 15  1  0
 15 16  2  0
 16 17  1  0
 16 18  1  0
 18 19  2  0
 19 20  1  0
 20 21  1  0
 12 22  1  0
 22 23  1  0
 23 24  1  0
 24 25  1  0
 25 26  1  0
 23 27  1  0
 27 28  2  0
  8  3  2  0
 20 14  2  0
 27  5  1  0
  1 29  1  0
  1 30  1  0
  1 31  1  0
  2 32  1  0
  2 33  1  0
  4 34  1  0
  7 35  1  0
 11 36  1  0
 12 37  1  0
 13 38  1  0
 13 39  1  0
 15 40  1  0
 17 41  1  0
 17 42  1  0
 17 43  1  0
 18 44  1  0
 19 45  1  0
 21 46  1  0
 22 47  1  0
 22 48  1  0
 24 49  1  0
 24 50  1  0
 25 51  1  0
 25 52  1  0
 26 53  1  0
M  END
>  <smiles>
CCc1cc2c(cc1C(=O)O)C(Cc1cc(C)ccc1O)CN(CCO)C2=O

$$$$
