mol_574d0c69220d
     RDKit          3D

 38 40  0  0  0  0  0  0  0  0999 V2000
    3.3798    3.6722   -1.5203 O   0  0  0  0  0  0  0  0  0  0  0  0
    3.7384    2.7008   -0.8773 C   0  0  0  0  0  0  0  0  0  0  0  0
    5.0433    2.4898   -0.6205 O   0  0  0  0  0  0  0  0  0  0  0  0
    2.8539    1.6429   -0.2947 C   0  0  0  0  0  0  0  0  0  0  0  0
    3.0153    0.3402   -1.0631 C   0  0  0  0  0  0  0  0  0  0  0  0
    2.1128   -0.7261   -0.5010 C   0  0  0  0  0  0  0  0  0  0  0  0
    2.6172   -1.6892    0.3864 C   0  0  0  0  0  0  0  0  0  0  0  0
    1.7580   -2.6484    0.9210 C   0  0  0  0  0  0  0  0  0  0  0  0
    0.4331   -2.5880    0.5454 C   0  0  0  0  0  0  0  0  0  0  0  0
    0.0124   -1.5999   -0.3311 C   0  0  0  0  0  0  0  0  0  0  0  0
    0.8085   -0.6702   -0.8716 N   0  0  0  0  0  0  0  0  0  0  0  0
   -1.3546   -1.7368   -0.5528 N   0  0  0  0  0  0  0  0  0  0  0  0
   -2.1130   -0.8356   -1.3808 C   0  0  0  0  0  0  0  0  0  0  0  0
   -2.5756    0.3858   -0.6209 C   0  0  0  0  0  0  0  0  0  0  0  0
   -1.8333    1.5745   -0.6630 C   0  0  0  0  0  0  0  0  0  0  0  0
   -2.2517    2.6968    0.0532 C   0  0  0  0  0  0  0  0  0  0  0  0
   -3.4119    2.6402    0.8234 C   0  0  0  0  0  0  0  0  0  0  0  0
   -4.1522    1.4607    0.8822 C   0  0  0  0  0  0  0  0  0  0  0  0
   -3.7352    0.3373    0.1667 C   0  0  0  0  0  0  0  0  0  0  0  0
   -1.8795   -2.8053    0.1612 C   0  0  0  0  0  0  0  0  0  0  0  0
   -3.0401   -3.1860    0.1817 O   0  0  0  0  0  0  0  0  0  0  0  0
   -0.7250   -3.4444    0.9373 C   0  0  0  0  0  0  0  0  0  0  0  0
    5.4930    3.2532   -1.0418 H   0  0  0  0  0  0  0  0  0  0  0  0
    3.0977    1.5251    0.7677 H   0  0  0  0  0  0  0  0  0  0  0  0
    1.8187    2.0023   -0.3392 H   0  0  0  0  0  0  0  0  0  0  0  0
    4.0579   -0.0003   -1.0450 H   0  0  0  0  0  0  0  0  0  0  0  0
    2.7673    0.4930   -2.1214 H   0  0  0  0  0  0  0  0  0  0  0  0
    3.6683   -1.6901    0.6613 H   0  0  0  0  0  0  0  0  0  0  0  0
    2.1214   -3.4044    1.6086 H   0  0  0  0  0  0  0  0  0  0  0  0
   -1.5208   -0.5503   -2.2588 H   0  0  0  0  0  0  0  0  0  0  0  0
   -2.9937   -1.3664   -1.7638 H   0  0  0  0  0  0  0  0  0  0  0  0
   -0.9183    1.6272   -1.2503 H   0  0  0  0  0  0  0  0  0  0  0  0
   -1.6693    3.6134    0.0120 H   0  0  0  0  0  0  0  0  0  0  0  0
   -3.7368    3.5141    1.3815 H   0  0  0  0  0  0  0  0  0  0  0  0
   -5.0534    1.4131    1.4877 H   0  0  0  0  0  0  0  0  0  0  0  0
   -4.3166   -0.5814    0.2285 H   0  0  0  0  0  0  0  0  0  0  0  0
   -0.9261   -3.3818    2.0097 H   0  0  0  0  0  0  0  0  0  0  0  0
   -0.5898   -4.4778    0.6084 H   0  0  0  0  0  0  0  0  0  0  0  0
  1  2  2  0
  2  3  1  0
  2  4  1  0
  4  5  1  0
  5  6  1  0
  6  7  2  0
  7  8  1  0
  8  9  2  0
  9 10  1  0
 10 11  2  0
 10 12  1  0
 12 13  1  0
 13 14  1  0
 14 15  2  0
 15 16  1  0
 16 17  2  0
 17 18  1  0
 18 19  2  0
 12 20  1  0
 20 21  2  0
 20 22  1  0
 11  6  1  0
 19 14  1  0
 22  9  1  0
  3 23  1  0
  4 24  1  0
  4 25  1  0
  5 26  1  0
  5 27  1  0
  7 28  1  0
  8 29  1  0
 13 30  1  0
 13 31  1  0
 15 32  1  0
 16 33  1  0
 17 34  1  0
 18 35  1  0
 19 36  1  0
 22 37  1  0
 22 38  1  0
M  END
>  <smiles>
O=C(O)CCc1ccc2c(n1)N(Cc1ccccc1)C(=O)C2

$$$$
