mol_89a29b105951
     RDKit          3D

 58 60  0  0  0  0  0  0  0  0999 V2000
    7.5790   -0.2582    1.2422 C   0  0  0  0  0  0  0  0  0  0  0  0
    6.0820   -0.2432    0.9449 C   0  0  0  0  0  0  0  0  0  0  0  0
    5.5739    1.1796    0.7610 C   0  0  0  0  0  0  0  0  0  0  0  0
    4.0691    1.1506    0.5591 C   0  0  0  0  0  0  0  0  0  0  0  0
    3.6106    0.2020   -0.4527 N   0  0  0  0  0  0  0  0  0  0  0  0
    2.2156    0.3678   -0.9217 C   0  0  0  0  0  0  0  0  0  0  0  0
    2.1234    0.3752   -2.4510 C   0  0  0  0  0  0  0  0  0  0  0  0
    1.2679   -0.6555   -0.2572 C   0  0  0  0  0  0  0  0  0  0  0  0
   -0.2356   -0.4113   -0.5014 C   0  0  0  0  0  0  0  0  0  0  0  0
   -1.0714   -1.5340    0.1292 C   0  0  0  0  0  0  0  0  0  0  0  0
   -2.5605   -1.4055   -0.2108 C   0  0  0  0  0  0  0  0  0  0  0  0
   -3.0195    0.0522   -0.4120 C   0  0  0  0  0  0  0  0  0  0  0  0
   -4.4770    0.1948   -0.2173 N   0  0  0  0  0  0  0  0  0  0  0  0
   -5.0061    0.2572    1.1466 C   0  0  0  0  0  0  0  0  0  0  0  0
   -6.4558    0.7045    1.2316 C   0  0  0  0  0  0  0  0  0  0  0  0
   -7.2887   -0.1155    0.2687 C   0  0  0  0  0  0  0  0  0  0  0  0
   -6.7902    0.1242   -1.1413 C   0  0  0  0  0  0  0  0  0  0  0  0
   -5.2963   -0.0683   -1.3151 C   0  0  0  0  0  0  0  0  0  0  0  0
   -4.8511   -0.3651   -2.4251 O   0  0  0  0  0  0  0  0  0  0  0  0
   -2.1713    1.0108    0.4304 C   0  0  0  0  0  0  0  0  0  0  0  0
   -0.6943    0.9646    0.0222 C   0  0  0  0  0  0  0  0  0  0  0  0
    4.3233   -0.9498   -0.7703 C   0  0  0  0  0  0  0  0  0  0  0  0
    3.8618   -1.8612   -1.4580 O   0  0  0  0  0  0  0  0  0  0  0  0
    5.7712   -1.0274   -0.3227 C   0  0  0  0  0  0  0  0  0  0  0  0
    7.7964    0.2927    2.1634 H   0  0  0  0  0  0  0  0  0  0  0  0
    7.9381   -1.2845    1.3723 H   0  0  0  0  0  0  0  0  0  0  0  0
    8.1531    0.2013    0.4304 H   0  0  0  0  0  0  0  0  0  0  0  0
    5.5574   -0.7051    1.7918 H   0  0  0  0  0  0  0  0  0  0  0  0
    5.8150    1.7971    1.6339 H   0  0  0  0  0  0  0  0  0  0  0  0
    6.0562    1.6456   -0.1079 H   0  0  0  0  0  0  0  0  0  0  0  0
    3.5687    0.8833    1.4975 H   0  0  0  0  0  0  0  0  0  0  0  0
    3.7360    2.1553    0.2753 H   0  0  0  0  0  0  0  0  0  0  0  0
    1.9088    1.3707   -0.6013 H   0  0  0  0  0  0  0  0  0  0  0  0
    2.2500   -0.6236   -2.8788 H   0  0  0  0  0  0  0  0  0  0  0  0
    2.8929    1.0250   -2.8820 H   0  0  0  0  0  0  0  0  0  0  0  0
    1.1511    0.7536   -2.7821 H   0  0  0  0  0  0  0  0  0  0  0  0
    1.4547   -0.6603    0.8253 H   0  0  0  0  0  0  0  0  0  0  0  0
    1.5145   -1.6653   -0.6067 H   0  0  0  0  0  0  0  0  0  0  0  0
   -0.4170   -0.4458   -1.5836 H   0  0  0  0  0  0  0  0  0  0  0  0
   -0.7146   -2.5168   -0.2015 H   0  0  0  0  0  0  0  0  0  0  0  0
   -0.9478   -1.5111    1.2200 H   0  0  0  0  0  0  0  0  0  0  0  0
   -3.1371   -1.9000    0.5798 H   0  0  0  0  0  0  0  0  0  0  0  0
   -2.7742   -1.9687   -1.1284 H   0  0  0  0  0  0  0  0  0  0  0  0
   -2.8159    0.3102   -1.4606 H   0  0  0  0  0  0  0  0  0  0  0  0
   -4.4048    0.9507    1.7401 H   0  0  0  0  0  0  0  0  0  0  0  0
   -4.9012   -0.7422    1.5837 H   0  0  0  0  0  0  0  0  0  0  0  0
   -6.8246    0.5821    2.2558 H   0  0  0  0  0  0  0  0  0  0  0  0
   -6.5351    1.7696    0.9815 H   0  0  0  0  0  0  0  0  0  0  0  0
   -7.2152   -1.1805    0.5202 H   0  0  0  0  0  0  0  0  0  0  0  0
   -8.3443    0.1668    0.3450 H   0  0  0  0  0  0  0  0  0  0  0  0
   -7.3069   -0.5563   -1.8275 H   0  0  0  0  0  0  0  0  0  0  0  0
   -7.0223    1.1494   -1.4539 H   0  0  0  0  0  0  0  0  0  0  0  0
   -2.5421    2.0390    0.3431 H   0  0  0  0  0  0  0  0  0  0  0  0
   -2.2424    0.7420    1.4919 H   0  0  0  0  0  0  0  0  0  0  0  0
   -0.0918    1.2757    0.8847 H   0  0  0  0  0  0  0  0  0  0  0  0
   -0.5168    1.7125   -0.7609 H   0  0  0  0  0  0  0  0  0  0  0  0
    6.0190   -2.0843   -0.1667 H   0  0  0  0  0  0  0  0  0  0  0  0
    6.3822   -0.6669   -1.1600 H   0  0  0  0  0  0  0  0  0  0  0  0
  1  2  1  0
  2  3  1  0
  3  4  1  0
  4  5  1  0
  5  6  1  0
  6  7  1  0
  6  8  1  0
  8  9  1  0
  9 10  1  0
 10 11  1  0
 11 12  1  0
 12 13  1  0
 13 14  1  0
 14 15  1  0
 15 16  1  0
 16 17  1  0
 17 18  1  0
 18 19  2  0
 12 20  1  0
 20 21  1  0
  5 22  1  0
 22 23  2  0
 22 24  1  0
 24  2  1  0
 21  9  1  0
 18 13  1  0
  1 25  1  0
  1 26  1  0
  1 27  1  0
  2 28  1  0
  3 29  1  0
  3 30  1  0
  4 31  1  0
  4 32  1  0
  6 33  1  0
  7 34  1  0
  7 35  1  0
  7 36  1  0
  8 37  1  0
  8 38  1  0
  9 39  1  0
 10 40  1  0
 10 41  1  0
 11 42  1  0
 11 43  1  0
 12 44  1  0
 14 45  1  0
 14 46  1  0
 15 47  1  0
 15 48  1  0
 16 49  1  0
 16 50  1  0
 17 51  1  0
 17 52  1  0
 20 53  1  0
 20 54  1  0
 21 55  1  0
 21 56  1  0
 24 57  1  0
 24 58  1  0
M  END
>  <smiles>
CC1CCN(C(C)CC2CCC(N3CCCCC3=O)CC2)C(=O)C1

$$$$
