mol_aee4fbcc4909
     RDKit          3D

 52 55  0  0  0  0  0  0  0  0999 V2000
   -6.2731    3.2985   -0.1935 C   0  0  0  0  0  0  0  0  0  0  0  0
   -4.9524    2.8000   -0.3644 O   0  0  0  0  0  0  0  0  0  0  0  0
   -4.7687    1.4402   -0.3451 C   0  0  0  0  0  0  0  0  0  0  0  0
   -5.8119    0.5249   -0.2476 C   0  0  0  0  0  0  0  0  0  0  0  0
   -5.5458   -0.8397   -0.2342 C   0  0  0  0  0  0  0  0  0  0  0  0
   -4.2403   -1.3227   -0.3554 C   0  0  0  0  0  0  0  0  0  0  0  0
   -4.0449   -2.7094   -0.3406 C   0  0  0  0  0  0  0  0  0  0  0  0
   -2.7748   -3.2377   -0.4730 C   0  0  0  0  0  0  0  0  0  0  0  0
   -2.6025   -4.5655   -0.4577 F   0  0  0  0  0  0  0  0  0  0  0  0
   -1.6826   -2.4096   -0.6474 C   0  0  0  0  0  0  0  0  0  0  0  0
   -1.8474   -1.0108   -0.6811 C   0  0  0  0  0  0  0  0  0  0  0  0
   -3.1426   -0.4253   -0.4943 C   0  0  0  0  0  0  0  0  0  0  0  0
   -3.4285    0.9822   -0.4342 C   0  0  0  0  0  0  0  0  0  0  0  0
   -2.3145    2.0229   -0.4408 C   0  0  0  0  0  0  0  0  0  0  0  0
   -1.1821    1.7163    0.5429 C   0  0  0  0  0  0  0  0  0  0  0  0
   -0.2373    0.6780    0.1335 N   0  0  0  0  0  0  0  0  0  0  0  0
    0.8476    0.4680    0.9836 C   0  0  0  0  0  0  0  0  0  0  0  0
    0.9882    1.1087    2.0221 O   0  0  0  0  0  0  0  0  0  0  0  0
    1.7976   -0.4006    0.5138 N   0  0  0  0  0  0  0  0  0  0  0  0
    2.6414   -1.1436    1.3217 C   0  0  0  0  0  0  0  0  0  0  0  0
    2.4266   -1.4197    2.4985 O   0  0  0  0  0  0  0  0  0  0  0  0
    3.8468   -1.7104    0.5616 C   0  0  0  0  0  0  0  0  0  0  0  0
    5.0015   -0.8072    0.6350 N   0  0  0  0  0  0  0  0  0  0  0  0
    6.2115   -1.4172    0.0846 C   0  0  0  0  0  0  0  0  0  0  0  0
    7.1666   -0.2398   -0.0172 C   0  0  0  0  0  0  0  0  0  0  0  0
    6.2711    0.9805   -0.1966 C   0  0  0  0  0  0  0  0  0  0  0  0
    4.8459    0.4561   -0.0819 C   0  0  0  0  0  0  0  0  0  0  0  0
   -0.6173   -0.1839   -0.9762 C   0  0  0  0  0  0  0  0  0  0  0  0
   -6.2198    4.3915   -0.1972 H   0  0  0  0  0  0  0  0  0  0  0  0
   -6.6916    2.9898    0.7701 H   0  0  0  0  0  0  0  0  0  0  0  0
   -6.9188    2.9951   -1.0239 H   0  0  0  0  0  0  0  0  0  0  0  0
   -6.8480    0.8363   -0.1698 H   0  0  0  0  0  0  0  0  0  0  0  0
   -6.3841   -1.5278   -0.1371 H   0  0  0  0  0  0  0  0  0  0  0  0
   -4.8776   -3.3974   -0.2227 H   0  0  0  0  0  0  0  0  0  0  0  0
   -0.7054   -2.8688   -0.7655 H   0  0  0  0  0  0  0  0  0  0  0  0
   -2.7059    2.9991   -0.1332 H   0  0  0  0  0  0  0  0  0  0  0  0
   -1.9514    2.1630   -1.4650 H   0  0  0  0  0  0  0  0  0  0  0  0
   -1.5891    1.4354    1.5233 H   0  0  0  0  0  0  0  0  0  0  0  0
   -0.5956    2.6314    0.6973 H   0  0  0  0  0  0  0  0  0  0  0  0
    1.9915   -0.3623   -0.4697 H   0  0  0  0  0  0  0  0  0  0  0  0
    3.5681   -1.9305   -0.4764 H   0  0  0  0  0  0  0  0  0  0  0  0
    4.0917   -2.6681    1.0381 H   0  0  0  0  0  0  0  0  0  0  0  0
    6.6117   -2.2034    0.7325 H   0  0  0  0  0  0  0  0  0  0  0  0
    6.0320   -1.8404   -0.9120 H   0  0  0  0  0  0  0  0  0  0  0  0
    7.8690   -0.3568   -0.8484 H   0  0  0  0  0  0  0  0  0  0  0  0
    7.7513   -0.1364    0.9047 H   0  0  0  0  0  0  0  0  0  0  0  0
    6.4386    1.4630   -1.1652 H   0  0  0  0  0  0  0  0  0  0  0  0
    6.4835    1.7171    0.5868 H   0  0  0  0  0  0  0  0  0  0  0  0
    4.4296    0.3008   -1.0853 H   0  0  0  0  0  0  0  0  0  0  0  0
    4.2094    1.1666    0.4544 H   0  0  0  0  0  0  0  0  0  0  0  0
   -0.7735    0.4228   -1.8749 H   0  0  0  0  0  0  0  0  0  0  0  0
    0.2064   -0.8527   -1.2409 H   0  0  0  0  0  0  0  0  0  0  0  0
  1  2  1  0
  2  3  1  0
  3  4  2  0
  4  5  1  0
  5  6  2  0
  6  7  1  0
  7  8  2  0
  8  9  1  0
  8 10  1  0
 10 11  2  0
 11 12  1  0
 12 13  2  0
 13 14  1  0
 14 15  1  0
 15 16  1  0
 16 17  1  0
 17 18  2  0
 17 19  1  0
 19 20  1  0
 20 21  2  0
 20 22  1  0
 22 23  1  0
 23 24  1  0
 24 25  1  0
 25 26  1  0
 26 27  1  0
 16 28  1  0
 13  3  1  0
 27 23  1  0
 12  6  1  0
 28 11  1  0
  1 29  1  0
  1 30  1  0
  1 31  1  0
  4 32  1  0
  5 33  1  0
  7 34  1  0
 10 35  1  0
 14 36  1  0
 14 37  1  0
 15 38  1  0
 15 39  1  0
 19 40  1  0
 22 41  1  0
 22 42  1  0
 24 43  1  0
 24 44  1  0
 25 45  1  0
 25 46  1  0
 26 47  1  0
 26 48  1  0
 27 49  1  0
 27 50  1  0
 28 51  1  0
 28 52  1  0
M  END
>  <smiles>
COc1ccc2cc(F)cc3c2c1CCN(C(=O)NC(=O)CN1CCCC1)C3

$$$$
