mol_0c140ed61d7a
     RDKit          3D

 62 64  0  0  0  0  0  0  0  0999 V2000
    8.5831   -0.9193    0.1739 C   0  0  0  0  0  0  0  0  0  0  0  0
    7.5236   -0.0949    0.8871 C   0  0  0  0  0  0  0  0  0  0  0  0
    6.1151   -0.4940    0.4497 C   0  0  0  0  0  0  0  0  0  0  0  0
    5.0356    0.3131    1.1553 C   0  0  0  0  0  0  0  0  0  0  0  0
    5.3247    1.2154    1.9416 O   0  0  0  0  0  0  0  0  0  0  0  0
    3.7211   -0.0126    0.8656 N   0  0  0  0  0  0  0  0  0  0  0  0
    2.6307    0.7031    1.5429 C   0  0  0  0  0  0  0  0  0  0  0  0
    1.6466    1.3164    0.5305 C   0  0  0  0  0  0  0  0  0  0  0  0
    1.1856    0.2964   -0.4303 N   0  0  0  0  0  0  0  0  0  0  0  0
   -0.0965   -0.2129   -0.2879 C   0  0  0  0  0  0  0  0  0  0  0  0
   -0.2922   -1.5132    0.2069 C   0  0  0  0  0  0  0  0  0  0  0  0
   -1.5690   -2.0446    0.3767 C   0  0  0  0  0  0  0  0  0  0  0  0
   -1.6433   -3.2987    0.9269 O   0  0  0  0  0  0  0  0  0  0  0  0
   -2.6976   -1.3084    0.0178 C   0  0  0  0  0  0  0  0  0  0  0  0
   -4.0309   -1.9226    0.2030 C   0  0  0  0  0  0  0  0  0  0  0  0
   -4.2263   -2.4684    1.2921 O   0  0  0  0  0  0  0  0  0  0  0  0
   -4.9621   -1.9369   -0.8308 N   0  0  0  0  0  0  0  0  0  0  0  0
   -4.6730   -1.6038   -2.2189 C   0  0  0  0  0  0  0  0  0  0  0  0
   -6.3147   -2.3834   -0.5496 C   0  0  0  0  0  0  0  0  0  0  0  0
   -2.5264    0.0099   -0.4183 C   0  0  0  0  0  0  0  0  0  0  0  0
   -1.2389    0.5603   -0.6073 C   0  0  0  0  0  0  0  0  0  0  0  0
   -1.1282    1.9440   -1.2180 C   0  0  0  0  0  0  0  0  0  0  0  0
   -1.6629    3.0489   -0.3045 C   0  0  0  0  0  0  0  0  0  0  0  0
   -3.1912    3.1068   -0.2300 C   0  0  0  0  0  0  0  0  0  0  0  0
   -3.8188    1.8048    0.2741 C   0  0  0  0  0  0  0  0  0  0  0  0
   -5.3259    1.9709    0.4488 C   0  0  0  0  0  0  0  0  0  0  0  0
   -3.6321    0.7715   -0.7054 O   0  0  0  0  0  0  0  0  0  0  0  0
    2.2444   -0.4825   -1.0920 C   0  0  0  0  0  0  0  0  0  0  0  0
    3.2680   -1.0427   -0.0816 C   0  0  0  0  0  0  0  0  0  0  0  0
    8.5243   -0.7803   -0.9103 H   0  0  0  0  0  0  0  0  0  0  0  0
    9.5827   -0.6169    0.5014 H   0  0  0  0  0  0  0  0  0  0  0  0
    8.4626   -1.9854    0.3911 H   0  0  0  0  0  0  0  0  0  0  0  0
    7.6932    0.9683    0.6791 H   0  0  0  0  0  0  0  0  0  0  0  0
    7.6307   -0.2277    1.9703 H   0  0  0  0  0  0  0  0  0  0  0  0
    5.9550   -1.5557    0.6695 H   0  0  0  0  0  0  0  0  0  0  0  0
    6.0134   -0.3360   -0.6300 H   0  0  0  0  0  0  0  0  0  0  0  0
    3.0158    1.4888    2.1999 H   0  0  0  0  0  0  0  0  0  0  0  0
    2.1138   -0.0296    2.1743 H   0  0  0  0  0  0  0  0  0  0  0  0
    0.8147    1.7815    1.0701 H   0  0  0  0  0  0  0  0  0  0  0  0
    2.1545    2.1098   -0.0313 H   0  0  0  0  0  0  0  0  0  0  0  0
    0.5543   -2.1248    0.5014 H   0  0  0  0  0  0  0  0  0  0  0  0
   -2.5545   -3.4114    1.2788 H   0  0  0  0  0  0  0  0  0  0  0  0
   -3.6027   -1.5142   -2.4111 H   0  0  0  0  0  0  0  0  0  0  0  0
   -5.0634   -2.4003   -2.8602 H   0  0  0  0  0  0  0  0  0  0  0  0
   -5.1767   -0.6655   -2.4676 H   0  0  0  0  0  0  0  0  0  0  0  0
   -6.4912   -2.5060    0.5222 H   0  0  0  0  0  0  0  0  0  0  0  0
   -7.0198   -1.6429   -0.9388 H   0  0  0  0  0  0  0  0  0  0  0  0
   -6.4789   -3.3426   -1.0493 H   0  0  0  0  0  0  0  0  0  0  0  0
   -0.0882    2.1771   -1.4688 H   0  0  0  0  0  0  0  0  0  0  0  0
   -1.6576    1.9515   -2.1798 H   0  0  0  0  0  0  0  0  0  0  0  0
   -1.3111    4.0149   -0.6876 H   0  0  0  0  0  0  0  0  0  0  0  0
   -1.2518    2.9432    0.7066 H   0  0  0  0  0  0  0  0  0  0  0  0
   -3.4742    3.9353    0.4304 H   0  0  0  0  0  0  0  0  0  0  0  0
   -3.5786    3.3405   -1.2300 H   0  0  0  0  0  0  0  0  0  0  0  0
   -3.3948    1.5234    1.2487 H   0  0  0  0  0  0  0  0  0  0  0  0
   -5.8070    2.2262   -0.5020 H   0  0  0  0  0  0  0  0  0  0  0  0
   -5.5587    2.7496    1.1814 H   0  0  0  0  0  0  0  0  0  0  0  0
   -5.7754    1.0303    0.7855 H   0  0  0  0  0  0  0  0  0  0  0  0
    2.7696    0.1938   -1.7782 H   0  0  0  0  0  0  0  0  0  0  0  0
    1.8324   -1.2914   -1.7070 H   0  0  0  0  0  0  0  0  0  0  0  0
    4.1017   -1.4866   -0.6288 H   0  0  0  0  0  0  0  0  0  0  0  0
    2.8172   -1.8396    0.5195 H   0  0  0  0  0  0  0  0  0  0  0  0
  1  2  1  0
  2  3  1  0
  3  4  1  0
  4  5  2  0
  4  6  1  0
  6  7  1  0
  7  8  1  0
  8  9  1  0
  9 10  1  0
 10 11  1  0
 11 12  2  0
 12 13  1  0
 12 14  1  0
 14 15  1  0
 15 16  2  0
 15 17  1  0
 17 18  1  0
 17 19  1  0
 14 20  2  0
 20 21  1  0
 21 22  1  0
 22 23  1  0
 23 24  1  0
 24 25  1  0
 25 26  1  0
 25 27  1  0
  9 28  1  0
 28 29  1  0
 29  6  1  0
 21 10  2  0
 27 20  1  0
  1 30  1  0
  1 31  1  0
  1 32  1  0
  2 33  1  0
  2 34  1  0
  3 35  1  0
  3 36  1  0
  7 37  1  0
  7 38  1  0
  8 39  1  0
  8 40  1  0
 11 41  1  0
 13 42  1  0
 18 43  1  0
 18 44  1  0
 18 45  1  0
 19 46  1  0
 19 47  1  0
 19 48  1  0
 22 49  1  0
 22 50  1  0
 23 51  1  0
 23 52  1  0
 24 53  1  0
 24 54  1  0
 25 55  1  0
 26 56  1  0
 26 57  1  0
 26 58  1  0
 28 59  1  0
 28 60  1  0
 29 61  1  0
 29 62  1  0
M  END
>  <smiles>
CCCC(=O)N1CCN(c2cc(O)c(C(=O)N(C)C)c3c2CCCC(C)O3)CC1

$$$$
