mol_33d1ca10b95d
     RDKit          3D

 46 47  0  0  0  0  0  0  0  0999 V2000
    7.5779    0.9882    0.5274 C   0  0  0  0  0  0  0  0  0  0  0  0
    6.2170    0.3478    0.7451 C   0  0  0  0  0  0  0  0  0  0  0  0
    6.3505   -0.6483    1.7623 O   0  0  0  0  0  0  0  0  0  0  0  0
    5.6871   -0.2973   -0.5418 C   0  0  0  0  0  0  0  0  0  0  0  0
    4.3926   -0.8674   -0.3131 O   0  0  0  0  0  0  0  0  0  0  0  0
    3.2846   -0.0838   -0.4703 C   0  0  0  0  0  0  0  0  0  0  0  0
    3.2683    1.2777   -0.7743 C   0  0  0  0  0  0  0  0  0  0  0  0
    2.0528    1.9600   -0.8911 C   0  0  0  0  0  0  0  0  0  0  0  0
    0.8451    1.2847   -0.7121 C   0  0  0  0  0  0  0  0  0  0  0  0
    0.8527   -0.0830   -0.4203 C   0  0  0  0  0  0  0  0  0  0  0  0
   -0.4039   -0.8505   -0.2107 C   0  0  0  0  0  0  0  0  0  0  0  0
   -0.4191   -1.8069    0.5550 O   0  0  0  0  0  0  0  0  0  0  0  0
   -1.5012   -0.4341   -0.9352 N   0  0  0  0  0  0  0  0  0  0  0  0
   -2.7924   -1.0803   -0.8011 C   0  0  0  0  0  0  0  0  0  0  0  0
   -3.5846   -0.5239    0.3816 C   0  0  0  0  0  0  0  0  0  0  0  0
   -3.9930    0.9443    0.2073 C   0  0  0  0  0  0  0  0  0  0  0  0
   -5.2383    1.1339    1.0747 C   0  0  0  0  0  0  0  0  0  0  0  0
   -5.6002   -0.2473    1.6164 C   0  0  0  0  0  0  0  0  0  0  0  0
   -4.9109   -1.2434    0.6808 C   0  0  0  0  0  0  0  0  0  0  0  0
   -5.7711   -1.5445   -0.5469 C   0  0  0  0  0  0  0  0  0  0  0  0
    2.0731   -0.7563   -0.2871 C   0  0  0  0  0  0  0  0  0  0  0  0
    7.5286    1.7794   -0.2268 H   0  0  0  0  0  0  0  0  0  0  0  0
    8.3159    0.2437    0.2088 H   0  0  0  0  0  0  0  0  0  0  0  0
    7.9512    1.4196    1.4624 H   0  0  0  0  0  0  0  0  0  0  0  0
    5.5143    1.0960    1.1254 H   0  0  0  0  0  0  0  0  0  0  0  0
    5.4993   -1.1262    1.7890 H   0  0  0  0  0  0  0  0  0  0  0  0
    5.6923    0.3843   -1.3995 H   0  0  0  0  0  0  0  0  0  0  0  0
    6.3346   -1.1403   -0.8116 H   0  0  0  0  0  0  0  0  0  0  0  0
    4.1803    1.8482   -0.9134 H   0  0  0  0  0  0  0  0  0  0  0  0
    2.0505    3.0254   -1.1109 H   0  0  0  0  0  0  0  0  0  0  0  0
   -0.0847    1.8425   -0.7715 H   0  0  0  0  0  0  0  0  0  0  0  0
   -1.4064    0.3013   -1.6208 H   0  0  0  0  0  0  0  0  0  0  0  0
   -2.6359   -2.1577   -0.6769 H   0  0  0  0  0  0  0  0  0  0  0  0
   -3.3212   -0.9227   -1.7470 H   0  0  0  0  0  0  0  0  0  0  0  0
   -2.9602   -0.5891    1.2849 H   0  0  0  0  0  0  0  0  0  0  0  0
   -3.1878    1.6224    0.5098 H   0  0  0  0  0  0  0  0  0  0  0  0
   -4.2342    1.1714   -0.8380 H   0  0  0  0  0  0  0  0  0  0  0  0
   -5.0571    1.8398    1.8919 H   0  0  0  0  0  0  0  0  0  0  0  0
   -6.0573    1.5384    0.4692 H   0  0  0  0  0  0  0  0  0  0  0  0
   -6.6830   -0.3927    1.6833 H   0  0  0  0  0  0  0  0  0  0  0  0
   -5.1921   -0.3546    2.6294 H   0  0  0  0  0  0  0  0  0  0  0  0
   -4.7232   -2.1871    1.2064 H   0  0  0  0  0  0  0  0  0  0  0  0
   -6.7379   -1.9600   -0.2428 H   0  0  0  0  0  0  0  0  0  0  0  0
   -5.9664   -0.6495   -1.1460 H   0  0  0  0  0  0  0  0  0  0  0  0
   -5.2863   -2.2849   -1.1911 H   0  0  0  0  0  0  0  0  0  0  0  0
    2.0798   -1.8172   -0.0419 H   0  0  0  0  0  0  0  0  0  0  0  0
  1  2  1  0
  2  3  1  0
  2  4  1  0
  4  5  1  0
  5  6  1  0
  6  7  1  0
  7  8  2  0
  8  9  1  0
  9 10  2  0
 10 11  1  0
 11 12  2  0
 11 13  1  0
 13 14  1  0
 14 15  1  0
 15 16  1  0
 16 17  1  0
 17 18  1  0
 18 19  1  0
 19 20  1  0
 10 21  1  0
 21  6  2  0
 19 15  1  0
  1 22  1  0
  1 23  1  0
  1 24  1  0
  2 25  1  0
  3 26  1  0
  4 27  1  0
  4 28  1  0
  7 29  1  0
  8 30  1  0
  9 31  1  0
 13 32  1  0
 14 33  1  0
 14 34  1  0
 15 35  1  0
 16 36  1  0
 16 37  1  0
 17 38  1  0
 17 39  1  0
 18 40  1  0
 18 41  1  0
 19 42  1  0
 20 43  1  0
 20 44  1  0
 20 45  1  0
 21 46  1  0
M  END
>  <smiles>
CC(O)COc1cccc(C(=O)NCC2CCCC2C)c1

$$$$
