mol_b33bc00de773
     RDKit          3D

 44 47  0  0  0  0  0  0  0  0999 V2000
    3.6628   -0.0674   -2.2085 O   0  0  0  0  0  0  0  0  0  0  0  0
    3.8076   -0.0231   -0.9922 C   0  0  0  0  0  0  0  0  0  0  0  0
    2.7881   -0.0627   -0.0573 N   0  0  0  0  0  0  0  0  0  0  0  0
    1.4351   -0.0811   -0.3154 C   0  0  0  0  0  0  0  0  0  0  0  0
    0.7998   -0.0294   -1.4993 C   0  0  0  0  0  0  0  0  0  0  0  0
   -0.6268   -0.0703   -1.2748 C   0  0  0  0  0  0  0  0  0  0  0  0
   -0.8783   -0.1454    0.0378 C   0  0  0  0  0  0  0  0  0  0  0  0
   -2.2061   -0.2017    0.5661 C   0  0  0  0  0  0  0  0  0  0  0  0
   -3.3024   -0.1777   -0.2147 C   0  0  0  0  0  0  0  0  0  0  0  0
   -3.0957   -0.0824   -1.7422 C   0  0  0  0  0  0  0  0  0  0  0  0
   -4.0707   -0.0367   -2.6111 N   0  0  0  0  0  0  0  0  0  0  0  0
   -5.3429   -0.0800   -2.0996 C   0  0  0  0  0  0  0  0  0  0  0  0
   -5.6194   -0.1677   -0.7912 C   0  0  0  0  0  0  0  0  0  0  0  0
   -4.6459   -0.2263    0.2004 N   0  0  0  0  0  0  0  0  0  0  0  0
   -5.0437   -0.3002    1.6143 C   0  0  0  0  0  0  0  0  0  0  0  0
   -5.1006    1.0905    2.2531 C   0  0  0  0  0  0  0  0  0  0  0  0
   -5.5249    1.0059    3.6119 O   0  0  0  0  0  0  0  0  0  0  0  0
   -1.6729   -0.0351   -2.3223 C   0  0  0  0  0  0  0  0  0  0  0  0
    0.4093   -0.1611    0.8031 C   0  0  0  0  0  0  0  0  0  0  0  0
    0.5605   -1.2894    1.5447 F   0  0  0  0  0  0  0  0  0  0  0  0
    0.5190    0.8892    1.6587 F   0  0  0  0  0  0  0  0  0  0  0  0
    5.1861    0.0414   -0.4307 C   0  0  0  0  0  0  0  0  0  0  0  0
    6.2172   -0.6071   -1.1219 C   0  0  0  0  0  0  0  0  0  0  0  0
    7.5221   -0.5718   -0.6284 C   0  0  0  0  0  0  0  0  0  0  0  0
    7.8030    0.1197    0.5496 C   0  0  0  0  0  0  0  0  0  0  0  0
    6.7835    0.7841    1.2318 C   0  0  0  0  0  0  0  0  0  0  0  0
    5.4755    0.7510    0.7427 C   0  0  0  0  0  0  0  0  0  0  0  0
    3.0468   -0.1228    0.9223 H   0  0  0  0  0  0  0  0  0  0  0  0
    1.2518    0.0345   -2.4786 H   0  0  0  0  0  0  0  0  0  0  0  0
   -2.2840   -0.2642    1.6466 H   0  0  0  0  0  0  0  0  0  0  0  0
   -6.1476   -0.0396   -2.8280 H   0  0  0  0  0  0  0  0  0  0  0  0
   -6.6478   -0.1991   -0.4448 H   0  0  0  0  0  0  0  0  0  0  0  0
   -4.3704   -0.9518    2.1848 H   0  0  0  0  0  0  0  0  0  0  0  0
   -6.0272   -0.7796    1.7117 H   0  0  0  0  0  0  0  0  0  0  0  0
   -4.1139    1.5638    2.2423 H   0  0  0  0  0  0  0  0  0  0  0  0
   -5.7895    1.7499    1.7141 H   0  0  0  0  0  0  0  0  0  0  0  0
   -6.4785    0.8121    3.6105 H   0  0  0  0  0  0  0  0  0  0  0  0
   -1.5831    0.8834   -2.9141 H   0  0  0  0  0  0  0  0  0  0  0  0
   -1.5586   -0.8898   -2.9992 H   0  0  0  0  0  0  0  0  0  0  0  0
    6.0039   -1.1419   -2.0455 H   0  0  0  0  0  0  0  0  0  0  0  0
    8.3193   -1.0793   -1.1662 H   0  0  0  0  0  0  0  0  0  0  0  0
    8.8214    0.1503    0.9302 H   0  0  0  0  0  0  0  0  0  0  0  0
    7.0118    1.3382    2.1394 H   0  0  0  0  0  0  0  0  0  0  0  0
    4.7060    1.3079    1.2699 H   0  0  0  0  0  0  0  0  0  0  0  0
  1  2  2  0
  2  3  1  0
  3  4  1  0
  4  5  2  0
  5  6  1  0
  6  7  2  0
  7  8  1  0
  8  9  2  0
  9 10  1  0
 10 11  2  0
 11 12  1  0
 12 13  2  0
 13 14  1  0
 14 15  1  0
 15 16  1  0
 16 17  1  0
 10 18  1  0
  7 19  1  0
 19 20  1  0
 19 21  1  0
  2 22  1  0
 22 23  2  0
 23 24  1  0
 24 25  2  0
 25 26  1  0
 26 27  2  0
 19  4  1  0
 27 22  1  0
 18  6  1  0
 14  9  1  0
  3 28  1  0
  5 29  1  0
  8 30  1  0
 12 31  1  0
 13 32  1  0
 15 33  1  0
 15 34  1  0
 16 35  1  0
 16 36  1  0
 17 37  1  0
 18 38  1  0
 18 39  1  0
 23 40  1  0
 24 41  1  0
 25 42  1  0
 26 43  1  0
 27 44  1  0
M  END
>  <smiles>
O=C(NC1=CC2=C(C=C3C(=NC=CN3CCO)C2)C1(F)F)c1ccccc1

$$$$
