mol_fd9ffb888b7c
     RDKit          3D

 48 51  0  0  0  0  0  0  0  0999 V2000
   -0.4048    0.4656   -3.5742 C   0  0  0  0  0  0  0  0  0  0  0  0
   -1.1312    0.3291   -2.3438 N   0  0  0  0  0  0  0  0  0  0  0  0
   -2.5359    0.3526   -2.2126 C   0  0  0  0  0  0  0  0  0  0  0  0
   -3.3288    0.5006   -3.1322 O   0  0  0  0  0  0  0  0  0  0  0  0
   -2.8071    0.2003   -0.8152 N   0  0  0  0  0  0  0  0  0  0  0  0
   -4.0897    0.2233   -0.2188 C   0  0  0  0  0  0  0  0  0  0  0  0
   -4.3020    0.7104    1.0802 C   0  0  0  0  0  0  0  0  0  0  0  0
   -5.5812    0.7304    1.6488 C   0  0  0  0  0  0  0  0  0  0  0  0
   -6.6745    0.2770    0.9191 C   0  0  0  0  0  0  0  0  0  0  0  0
   -6.4828   -0.1765   -0.3771 C   0  0  0  0  0  0  0  0  0  0  0  0
   -7.5795   -0.5949   -1.0730 O   0  0  0  0  0  0  0  0  0  0  0  0
   -5.2107   -0.2022   -0.9486 C   0  0  0  0  0  0  0  0  0  0  0  0
   -1.5744    0.0362   -0.1405 C   0  0  0  0  0  0  0  0  0  0  0  0
   -1.2617   -0.2586    1.1706 C   0  0  0  0  0  0  0  0  0  0  0  0
    0.0942   -0.3815    1.5210 C   0  0  0  0  0  0  0  0  0  0  0  0
    1.1391   -0.2457    0.5779 C   0  0  0  0  0  0  0  0  0  0  0  0
    2.4787   -0.3619    0.9375 N   0  0  0  0  0  0  0  0  0  0  0  0
    2.9092   -0.0324    2.2958 C   0  0  0  0  0  0  0  0  0  0  0  0
    4.3547    0.4585    2.2714 C   0  0  0  0  0  0  0  0  0  0  0  0
    5.2747   -0.5312    1.5598 C   0  0  0  0  0  0  0  0  0  0  0  0
    4.7716   -0.8776    0.1513 C   0  0  0  0  0  0  0  0  0  0  0  0
    4.9337    0.2274   -0.8730 C   0  0  0  0  0  0  0  0  0  0  0  0
    4.3357    0.3225   -1.9343 O   0  0  0  0  0  0  0  0  0  0  0  0
    5.9075    1.1110   -0.5825 O   0  0  0  0  0  0  0  0  0  0  0  0
    3.3084   -1.3246    0.1947 C   0  0  0  0  0  0  0  0  0  0  0  0
    0.7862    0.0134   -0.7560 C   0  0  0  0  0  0  0  0  0  0  0  0
   -0.5530    0.1336   -1.0861 C   0  0  0  0  0  0  0  0  0  0  0  0
    0.2607    1.3312   -3.5078 H   0  0  0  0  0  0  0  0  0  0  0  0
    0.1821   -0.4406   -3.7505 H   0  0  0  0  0  0  0  0  0  0  0  0
   -1.0938    0.6103   -4.4107 H   0  0  0  0  0  0  0  0  0  0  0  0
   -3.4919    1.1463    1.6561 H   0  0  0  0  0  0  0  0  0  0  0  0
   -5.7240    1.1194    2.6535 H   0  0  0  0  0  0  0  0  0  0  0  0
   -7.6714    0.2939    1.3495 H   0  0  0  0  0  0  0  0  0  0  0  0
   -7.3048   -0.7944   -1.9842 H   0  0  0  0  0  0  0  0  0  0  0  0
   -5.0929   -0.5825   -1.9586 H   0  0  0  0  0  0  0  0  0  0  0  0
   -2.0153   -0.4351    1.9271 H   0  0  0  0  0  0  0  0  0  0  0  0
    0.3260   -0.6250    2.5554 H   0  0  0  0  0  0  0  0  0  0  0  0
    2.8170   -0.9140    2.9417 H   0  0  0  0  0  0  0  0  0  0  0  0
    2.2942    0.7674    2.7263 H   0  0  0  0  0  0  0  0  0  0  0  0
    4.4009    1.4305    1.7652 H   0  0  0  0  0  0  0  0  0  0  0  0
    4.7061    0.6177    3.2971 H   0  0  0  0  0  0  0  0  0  0  0  0
    6.2940   -0.1299    1.5303 H   0  0  0  0  0  0  0  0  0  0  0  0
    5.3240   -1.4537    2.1530 H   0  0  0  0  0  0  0  0  0  0  0  0
    5.3814   -1.7081   -0.2283 H   0  0  0  0  0  0  0  0  0  0  0  0
    5.8962    1.7315   -1.3415 H   0  0  0  0  0  0  0  0  0  0  0  0
    3.2431   -2.2949    0.7053 H   0  0  0  0  0  0  0  0  0  0  0  0
    2.9417   -1.4991   -0.8232 H   0  0  0  0  0  0  0  0  0  0  0  0
    1.5505    0.1370   -1.5155 H   0  0  0  0  0  0  0  0  0  0  0  0
  1  2  1  0
  2  3  1  0
  3  4  2  0
  3  5  1  0
  5  6  1  0
  6  7  2  0
  7  8  1  0
  8  9  2  0
  9 10  1  0
 10 11  1  0
 10 12  2  0
  5 13  1  0
 13 14  1  0
 14 15  2  0
 15 16  1  0
 16 17  1  0
 17 18  1  0
 18 19  1  0
 19 20  1  0
 20 21  1  0
 21 22  1  0
 22 23  2  0
 22 24  1  0
 21 25  1  0
 16 26  2  0
 26 27  1  0
 27  2  1  0
 12  6  1  0
 27 13  2  0
 25 17  1  0
  1 28  1  0
  1 29  1  0
  1 30  1  0
  7 31  1  0
  8 32  1  0
  9 33  1  0
 11 34  1  0
 12 35  1  0
 14 36  1  0
 15 37  1  0
 18 38  1  0
 18 39  1  0
 19 40  1  0
 19 41  1  0
 20 42  1  0
 20 43  1  0
 21 44  1  0
 24 45  1  0
 25 46  1  0
 25 47  1  0
 26 48  1  0
M  END
>  <smiles>
Cn1c(=O)n(-c2cccc(O)c2)c2ccc(N3CCCC(C(=O)O)C3)cc21

$$$$
