mol_dfa99ebed2f5
     RDKit          3D

 47 53  0  0  0  0  0  0  0  0999 V2000
    2.9505   -4.2082   -0.4805 O   0  0  0  0  0  0  0  0  0  0  0  0
    3.1509   -3.0563   -0.1152 C   0  0  0  0  0  0  0  0  0  0  0  0
    4.4941   -2.6421    0.3454 C   0  0  0  0  0  0  0  0  0  0  0  0
    4.7346   -1.3785    0.7115 C   0  0  0  0  0  0  0  0  0  0  0  0
    3.6791   -0.3615    0.6617 C   0  0  0  0  0  0  0  0  0  0  0  0
    3.9916    0.9621    0.9631 C   0  0  0  0  0  0  0  0  0  0  0  0
    3.0273    1.9494    0.8071 C   0  0  0  0  0  0  0  0  0  0  0  0
    1.7188    1.6222    0.4079 C   0  0  0  0  0  0  0  0  0  0  0  0
    1.3290    0.2505    0.2829 C   0  0  0  0  0  0  0  0  0  0  0  0
   -0.0170   -0.2117    0.0965 C   0  0  0  0  0  0  0  0  0  0  0  0
   -0.2605   -1.4786   -0.4722 C   0  0  0  0  0  0  0  0  0  0  0  0
    0.8043   -2.3850   -0.5528 C   0  0  0  0  0  0  0  0  0  0  0  0
    2.0769   -2.0321   -0.1023 C   0  0  0  0  0  0  0  0  0  0  0  0
    2.3646   -0.7179    0.2932 C   0  0  0  0  0  0  0  0  0  0  0  0
   -1.5830   -1.8965   -1.1024 C   0  0  0  0  0  0  0  0  0  0  0  0
   -2.8372   -1.5329   -0.4400 N   0  0  0  0  0  0  0  0  0  0  0  0
   -2.6895   -1.4261    1.0076 C   0  0  0  0  0  0  0  0  0  0  0  0
   -2.2963   -0.0085    1.4262 C   0  0  0  0  0  0  0  0  0  0  0  0
   -3.4765    0.9117    1.0823 C   0  0  0  0  0  0  0  0  0  0  0  0
   -3.2687    1.0045   -0.4266 C   0  0  0  0  0  0  0  0  0  0  0  0
   -3.5496   -0.3868   -1.0580 C   0  0  0  0  0  0  0  0  0  0  0  0
   -1.8466    1.3218   -0.5051 N   0  0  0  0  0  0  0  0  0  0  0  0
   -1.3521    2.2649   -1.3642 C   0  0  0  0  0  0  0  0  0  0  0  0
   -2.0899    2.8449   -2.1657 O   0  0  0  0  0  0  0  0  0  0  0  0
    0.1423    2.5499   -1.3887 C   0  0  0  0  0  0  0  0  0  0  0  0
    0.8337    2.7876   -0.0409 C   0  0  0  0  0  0  0  0  0  0  0  0
   -1.1569    0.6528    0.5835 C   0  0  0  0  0  0  0  0  0  0  0  0
    5.2585   -3.4092    0.3628 H   0  0  0  0  0  0  0  0  0  0  0  0
    5.7254   -1.0845    1.0430 H   0  0  0  0  0  0  0  0  0  0  0  0
    5.0003    1.2473    1.2524 H   0  0  0  0  0  0  0  0  0  0  0  0
    3.3199    2.9890    0.9465 H   0  0  0  0  0  0  0  0  0  0  0  0
    0.6420   -3.3862   -0.9519 H   0  0  0  0  0  0  0  0  0  0  0  0
   -1.5719   -1.5746   -2.1517 H   0  0  0  0  0  0  0  0  0  0  0  0
   -1.5957   -2.9940   -1.1471 H   0  0  0  0  0  0  0  0  0  0  0  0
   -1.9836   -2.1668    1.4043 H   0  0  0  0  0  0  0  0  0  0  0  0
   -3.6492   -1.6877    1.4725 H   0  0  0  0  0  0  0  0  0  0  0  0
   -2.0671    0.0066    2.4974 H   0  0  0  0  0  0  0  0  0  0  0  0
   -3.3553    1.8916    1.5605 H   0  0  0  0  0  0  0  0  0  0  0  0
   -4.4536    0.5067    1.3637 H   0  0  0  0  0  0  0  0  0  0  0  0
   -3.8922    1.7769   -0.8865 H   0  0  0  0  0  0  0  0  0  0  0  0
   -3.3653   -0.3498   -2.1386 H   0  0  0  0  0  0  0  0  0  0  0  0
   -4.6236   -0.5879   -0.9509 H   0  0  0  0  0  0  0  0  0  0  0  0
    0.6315    1.7694   -1.9831 H   0  0  0  0  0  0  0  0  0  0  0  0
    0.2474    3.4767   -1.9706 H   0  0  0  0  0  0  0  0  0  0  0  0
    0.1462    3.0974    0.7512 H   0  0  0  0  0  0  0  0  0  0  0  0
    1.4896    3.6578   -0.1878 H   0  0  0  0  0  0  0  0  0  0  0  0
   -0.7773    1.4215    1.2596 H   0  0  0  0  0  0  0  0  0  0  0  0
  1  2  2  0
  2  3  1  0
  3  4  2  0
  4  5  1  0
  5  6  1  0
  6  7  2  0
  7  8  1  0
  8  9  2  0
  9 10  1  0
 10 11  2  0
 11 12  1  0
 12 13  2  0
 13 14  1  0
 11 15  1  0
 15 16  1  0
 16 17  1  0
 17 18  1  0
 18 19  1  0
 19 20  1  0
 20 21  1  0
 20 22  1  0
 22 23  1  0
 23 24  2  0
 23 25  1  0
 25 26  1  0
 22 27  1  0
 13  2  1  0
 21 16  1  0
 14  5  2  0
 27 18  1  0
 26  8  1  0
 14  9  1  0
 27 10  1  0
  3 28  1  0
  4 29  1  0
  6 30  1  0
  7 31  1  0
 12 32  1  0
 15 33  1  0
 15 34  1  0
 17 35  1  0
 17 36  1  0
 18 37  1  0
 19 38  1  0
 19 39  1  0
 20 40  1  0
 21 41  1  0
 21 42  1  0
 25 43  1  0
 25 44  1  0
 26 45  1  0
 26 46  1  0
 27 47  1  0
M  END
>  <smiles>
O=C1C=Cc2ccc3c4c5c(cc1c24)CN1CC2CC(C1)N(C(=O)CC3)C52

$$$$
