mol_98a3dd821149
     RDKit          3D

 43 45  0  0  0  0  0  0  0  0999 V2000
    1.6948    2.3543    0.8466 C   0  0  0  0  0  0  0  0  0  0  0  0
    1.7865    0.9193    0.5553 N   0  0  0  0  0  0  0  0  0  0  0  0
    3.0754    0.4904    0.1568 C   0  0  0  0  0  0  0  0  0  0  0  0
    3.2727   -0.1391   -1.0843 C   0  0  0  0  0  0  0  0  0  0  0  0
    4.5416   -0.5663   -1.4872 C   0  0  0  0  0  0  0  0  0  0  0  0
    5.6266   -0.3688   -0.6423 C   0  0  0  0  0  0  0  0  0  0  0  0
    6.8820   -0.7688   -0.9913 O   0  0  0  0  0  0  0  0  0  0  0  0
    5.4614    0.2445    0.5922 C   0  0  0  0  0  0  0  0  0  0  0  0
    4.1912    0.6713    0.9888 C   0  0  0  0  0  0  0  0  0  0  0  0
    0.5867    0.1856    0.4137 C   0  0  0  0  0  0  0  0  0  0  0  0
    0.6064   -1.2121    0.4735 C   0  0  0  0  0  0  0  0  0  0  0  0
   -0.5602   -1.9698    0.3345 C   0  0  0  0  0  0  0  0  0  0  0  0
   -1.8025   -1.3526    0.1368 C   0  0  0  0  0  0  0  0  0  0  0  0
   -1.8665    0.0532    0.0872 C   0  0  0  0  0  0  0  0  0  0  0  0
   -0.6677    0.7901    0.2242 C   0  0  0  0  0  0  0  0  0  0  0  0
   -3.1777    0.7286   -0.1063 C   0  0  0  0  0  0  0  0  0  0  0  0
   -3.2804    2.2341   -0.0975 C   0  0  0  0  0  0  0  0  0  0  0  0
   -2.7028    2.8363   -1.2990 N   0  0  0  0  0  0  0  0  0  0  0  0
   -4.2763   -0.0341   -0.2351 C   0  0  0  0  0  0  0  0  0  0  0  0
   -5.5387    0.5198   -0.4067 O   0  0  0  0  0  0  0  0  0  0  0  0
   -4.2204   -1.5263   -0.2073 C   0  0  0  0  0  0  0  0  0  0  0  0
   -5.2910   -2.1219   -0.3522 O   0  0  0  0  0  0  0  0  0  0  0  0
   -2.9927   -2.1253   -0.0145 N   0  0  0  0  0  0  0  0  0  0  0  0
   -2.9352   -3.5773    0.0258 C   0  0  0  0  0  0  0  0  0  0  0  0
    2.6402    2.7878    1.1917 H   0  0  0  0  0  0  0  0  0  0  0  0
    1.3972    2.9085   -0.0513 H   0  0  0  0  0  0  0  0  0  0  0  0
    0.9677    2.5484    1.6441 H   0  0  0  0  0  0  0  0  0  0  0  0
    2.4292   -0.2832   -1.7558 H   0  0  0  0  0  0  0  0  0  0  0  0
    4.6569   -1.0425   -2.4552 H   0  0  0  0  0  0  0  0  0  0  0  0
    6.8429   -1.1730   -1.8734 H   0  0  0  0  0  0  0  0  0  0  0  0
    6.3150    0.3857    1.2485 H   0  0  0  0  0  0  0  0  0  0  0  0
    4.0738    1.1247    1.9694 H   0  0  0  0  0  0  0  0  0  0  0  0
    1.5443   -1.7359    0.6474 H   0  0  0  0  0  0  0  0  0  0  0  0
   -0.4576   -3.0487    0.3914 H   0  0  0  0  0  0  0  0  0  0  0  0
   -0.7124    1.8714    0.1469 H   0  0  0  0  0  0  0  0  0  0  0  0
   -2.7820    2.6390    0.7913 H   0  0  0  0  0  0  0  0  0  0  0  0
   -4.3210    2.5690   -0.0189 H   0  0  0  0  0  0  0  0  0  0  0  0
   -3.2113    2.4738   -2.1063 H   0  0  0  0  0  0  0  0  0  0  0  0
   -2.8977    3.8362   -1.2848 H   0  0  0  0  0  0  0  0  0  0  0  0
   -6.1354   -0.2578   -0.4787 H   0  0  0  0  0  0  0  0  0  0  0  0
   -2.5516   -3.9003    0.9989 H   0  0  0  0  0  0  0  0  0  0  0  0
   -2.2890   -3.9397   -0.7800 H   0  0  0  0  0  0  0  0  0  0  0  0
   -3.9223   -4.0287   -0.1098 H   0  0  0  0  0  0  0  0  0  0  0  0
  1  2  1  0
  2  3  1  0
  3  4  1  0
  4  5  2  0
  5  6  1  0
  6  7  1  0
  6  8  2  0
  8  9  1  0
  2 10  1  0
 10 11  1  0
 11 12  2  0
 12 13  1  0
 13 14  2  0
 14 15  1  0
 14 16  1  0
 16 17  1  0
 17 18  1  0
 16 19  2  0
 19 20  1  0
 19 21  1  0
 21 22  2  0
 21 23  1  0
 23 24  1  0
  9  3  2  0
 15 10  2  0
 23 13  1  0
  1 25  1  0
  1 26  1  0
  1 27  1  0
  4 28  1  0
  5 29  1  0
  7 30  1  0
  8 31  1  0
  9 32  1  0
 11 33  1  0
 12 34  1  0
 15 35  1  0
 17 36  1  0
 17 37  1  0
 18 38  1  0
 18 39  1  0
 20 40  1  0
 24 41  1  0
 24 42  1  0
 24 43  1  0
M  END
>  <smiles>
CN(c1ccc(O)cc1)c1ccc2c(c1)c(CN)c(O)c(=O)n2C

$$$$
