mol_c4f4a75e2aed
     RDKit          3D

 52 55  0  0  0  0  0  0  0  0999 V2000
    4.3865    1.5510    1.9648 C   0  0  0  0  0  0  0  0  0  0  0  0
    4.3887    0.3366    1.0698 C   0  0  0  0  0  0  0  0  0  0  0  0
    5.4430   -0.2680    0.8684 O   0  0  0  0  0  0  0  0  0  0  0  0
    3.1726   -0.0717    0.5191 N   0  0  0  0  0  0  0  0  0  0  0  0
    3.2370   -1.2286   -0.3941 C   0  0  0  0  0  0  0  0  0  0  0  0
    3.2750   -0.8534   -1.8689 C   0  0  0  0  0  0  0  0  0  0  0  0
    3.7040    0.1713   -2.3727 O   0  0  0  0  0  0  0  0  0  0  0  0
    2.7900   -1.8384   -2.6561 O   0  0  0  0  0  0  0  0  0  0  0  0
    1.9188    0.6922    0.6800 C   0  0  0  0  0  0  0  0  0  0  0  0
    1.8356    1.9350   -0.2421 C   0  0  0  0  0  0  0  0  0  0  0  0
    0.4232    1.9343   -0.8514 C   0  0  0  0  0  0  0  0  0  0  0  0
   -0.4152    1.0866    0.1203 C   0  0  0  0  0  0  0  0  0  0  0  0
   -0.8128    1.9385    1.3485 C   0  0  0  0  0  0  0  0  0  0  0  0
   -1.6762    0.4317   -0.4181 C   0  0  0  0  0  0  0  0  0  0  0  0
   -2.4836    1.0862   -1.3609 C   0  0  0  0  0  0  0  0  0  0  0  0
   -3.6698    0.5033   -1.8093 C   0  0  0  0  0  0  0  0  0  0  0  0
   -4.5443    1.2198   -2.7955 C   0  0  0  0  0  0  0  0  0  0  0  0
   -4.0674   -0.7269   -1.2742 C   0  0  0  0  0  0  0  0  0  0  0  0
   -3.2841   -1.3992   -0.3219 C   0  0  0  0  0  0  0  0  0  0  0  0
   -3.7101   -2.6260    0.2056 C   0  0  0  0  0  0  0  0  0  0  0  0
   -2.9500   -3.2933    1.1628 C   0  0  0  0  0  0  0  0  0  0  0  0
   -1.7458   -2.7525    1.5939 C   0  0  0  0  0  0  0  0  0  0  0  0
   -1.0784   -3.4696    2.5457 O   0  0  0  0  0  0  0  0  0  0  0  0
   -1.2653   -1.5477    1.0638 C   0  0  0  0  0  0  0  0  0  0  0  0
   -2.0609   -0.8347    0.1128 C   0  0  0  0  0  0  0  0  0  0  0  0
    0.0913   -0.9970    1.4747 C   0  0  0  0  0  0  0  0  0  0  0  0
    0.5991   -0.0415    0.4020 C   0  0  0  0  0  0  0  0  0  0  0  0
    3.7627    1.3739    2.8443 H   0  0  0  0  0  0  0  0  0  0  0  0
    5.4072    1.7474    2.3079 H   0  0  0  0  0  0  0  0  0  0  0  0
    4.0409    2.4313    1.4204 H   0  0  0  0  0  0  0  0  0  0  0  0
    4.1346   -1.8257   -0.2004 H   0  0  0  0  0  0  0  0  0  0  0  0
    2.3857   -1.8836   -0.1945 H   0  0  0  0  0  0  0  0  0  0  0  0
    2.9044   -1.4905   -3.5658 H   0  0  0  0  0  0  0  0  0  0  0  0
    1.8996    1.0437    1.7175 H   0  0  0  0  0  0  0  0  0  0  0  0
    1.9762    2.8442    0.3546 H   0  0  0  0  0  0  0  0  0  0  0  0
    2.5965    1.9543   -1.0257 H   0  0  0  0  0  0  0  0  0  0  0  0
    0.4600    1.4696   -1.8455 H   0  0  0  0  0  0  0  0  0  0  0  0
    0.0400    2.9520   -0.9817 H   0  0  0  0  0  0  0  0  0  0  0  0
   -1.4664    2.7661    1.0461 H   0  0  0  0  0  0  0  0  0  0  0  0
    0.0502    2.3820    1.8540 H   0  0  0  0  0  0  0  0  0  0  0  0
   -1.3661    1.3587    2.0955 H   0  0  0  0  0  0  0  0  0  0  0  0
   -2.1945    2.0633   -1.7418 H   0  0  0  0  0  0  0  0  0  0  0  0
   -5.2581    1.8592   -2.2671 H   0  0  0  0  0  0  0  0  0  0  0  0
   -5.0981    0.5075   -3.4162 H   0  0  0  0  0  0  0  0  0  0  0  0
   -3.9453    1.8401   -3.4705 H   0  0  0  0  0  0  0  0  0  0  0  0
   -5.0076   -1.1666   -1.6035 H   0  0  0  0  0  0  0  0  0  0  0  0
   -4.6484   -3.0709   -0.1181 H   0  0  0  0  0  0  0  0  0  0  0  0
   -3.2994   -4.2366    1.5738 H   0  0  0  0  0  0  0  0  0  0  0  0
   -0.3959   -2.9130    2.9501 H   0  0  0  0  0  0  0  0  0  0  0  0
    0.0040   -0.5062    2.4501 H   0  0  0  0  0  0  0  0  0  0  0  0
    0.8102   -1.8174    1.5782 H   0  0  0  0  0  0  0  0  0  0  0  0
    0.7068   -0.6204   -0.5288 H   0  0  0  0  0  0  0  0  0  0  0  0
  1  2  1  0
  2  3  2  0
  2  4  1  0
  4  5  1  0
  5  6  1  0
  6  7  2  0
  6  8  1  0
  4  9  1  0
  9 10  1  0
 10 11  1  0
 11 12  1  0
 12 13  1  0
 12 14  1  0
 14 15  2  0
 15 16  1  0
 16 17  1  0
 16 18  2  0
 18 19  1  0
 19 20  2  0
 20 21  1  0
 21 22  2  0
 22 23  1  0
 22 24  1  0
 24 25  2  0
 24 26  1  0
 26 27  1  0
 27  9  1  0
 27 12  1  0
 25 14  1  0
 25 19  1  0
  1 28  1  0
  1 29  1  0
  1 30  1  0
  5 31  1  0
  5 32  1  0
  8 33  1  0
  9 34  1  0
 10 35  1  0
 10 36  1  0
 11 37  1  0
 11 38  1  0
 13 39  1  0
 13 40  1  0
 13 41  1  0
 15 42  1  0
 17 43  1  0
 17 44  1  0
 17 45  1  0
 18 46  1  0
 20 47  1  0
 21 48  1  0
 23 49  1  0
 26 50  1  0
 26 51  1  0
 27 52  1  0
M  END
>  <smiles>
CC(=O)N(CC(=O)O)C1CCC2(C)c3cc(C)cc4ccc(O)c(c34)CC12

$$$$
