mol_64efbb6a0f44
     RDKit          3D

 54 58  0  0  0  0  0  0  0  0999 V2000
    6.1154    2.0712   -0.6836 C   0  0  0  0  0  0  0  0  0  0  0  0
    6.2814    0.7590    0.0656 C   0  0  0  0  0  0  0  0  0  0  0  0
    5.0687   -0.0511    0.0038 N   0  0  0  0  0  0  0  0  0  0  0  0
    4.9335   -1.0231   -0.9790 C   0  0  0  0  0  0  0  0  0  0  0  0
    5.8212   -1.2931   -1.7825 O   0  0  0  0  0  0  0  0  0  0  0  0
    3.6328   -1.7501   -1.0505 C   0  0  0  0  0  0  0  0  0  0  0  0
    3.5559   -2.9072   -1.8373 C   0  0  0  0  0  0  0  0  0  0  0  0
    2.3488   -3.5886   -1.9574 C   0  0  0  0  0  0  0  0  0  0  0  0
    1.2199   -3.1048   -1.3040 C   0  0  0  0  0  0  0  0  0  0  0  0
    0.0665   -3.7744   -1.4554 F   0  0  0  0  0  0  0  0  0  0  0  0
    1.2598   -1.9428   -0.5137 C   0  0  0  0  0  0  0  0  0  0  0  0
    0.0283   -1.4651    0.1278 C   0  0  0  0  0  0  0  0  0  0  0  0
   -0.3145   -1.8880    1.4207 C   0  0  0  0  0  0  0  0  0  0  0  0
   -1.4701   -1.4087    2.0377 C   0  0  0  0  0  0  0  0  0  0  0  0
   -2.3021   -0.5182    1.3522 C   0  0  0  0  0  0  0  0  0  0  0  0
   -2.0029   -0.1036    0.0513 C   0  0  0  0  0  0  0  0  0  0  0  0
   -0.8237   -0.5678   -0.5422 C   0  0  0  0  0  0  0  0  0  0  0  0
   -2.8312    0.7840   -0.6206 N   0  0  0  0  0  0  0  0  0  0  0  0
   -4.2157    0.8411   -0.2129 C   0  0  0  0  0  0  0  0  0  0  0  0
   -4.8822    2.0695   -0.8372 C   0  0  0  0  0  0  0  0  0  0  0  0
   -6.3520    2.1908   -0.4304 C   0  0  0  0  0  0  0  0  0  0  0  0
   -6.6435    1.5958    0.9482 C   0  0  0  0  0  0  0  0  0  0  0  0
   -5.4096    1.5961    1.8421 C   0  0  0  0  0  0  0  0  0  0  0  0
   -4.3057    0.8638    1.2332 N   0  0  0  0  0  0  0  0  0  0  0  0
   -3.4810    0.0771    2.0214 C   0  0  0  0  0  0  0  0  0  0  0  0
   -3.6569   -0.1073    3.2228 O   0  0  0  0  0  0  0  0  0  0  0  0
    2.4944   -1.2651   -0.3748 C   0  0  0  0  0  0  0  0  0  0  0  0
    2.6226    0.0130    0.4250 C   0  0  0  0  0  0  0  0  0  0  0  0
    4.0352    0.1782    0.9836 C   0  0  0  0  0  0  0  0  0  0  0  0
    4.2628   -0.7452    2.0319 O   0  0  0  0  0  0  0  0  0  0  0  0
    5.3033    2.6698   -0.2586 H   0  0  0  0  0  0  0  0  0  0  0  0
    5.8813    1.8934   -1.7384 H   0  0  0  0  0  0  0  0  0  0  0  0
    7.0370    2.6589   -0.6309 H   0  0  0  0  0  0  0  0  0  0  0  0
    6.5289    0.9426    1.1170 H   0  0  0  0  0  0  0  0  0  0  0  0
    7.1170    0.2024   -0.3724 H   0  0  0  0  0  0  0  0  0  0  0  0
    4.4364   -3.2752   -2.3610 H   0  0  0  0  0  0  0  0  0  0  0  0
    2.2760   -4.4866   -2.5630 H   0  0  0  0  0  0  0  0  0  0  0  0
    0.3292   -2.5793    1.9616 H   0  0  0  0  0  0  0  0  0  0  0  0
   -1.7131   -1.7149    3.0525 H   0  0  0  0  0  0  0  0  0  0  0  0
   -0.5635   -0.2386   -1.5458 H   0  0  0  0  0  0  0  0  0  0  0  0
   -2.6095    1.0213   -1.5783 H   0  0  0  0  0  0  0  0  0  0  0  0
   -4.7293   -0.0673   -0.5556 H   0  0  0  0  0  0  0  0  0  0  0  0
   -4.3513    2.9760   -0.5148 H   0  0  0  0  0  0  0  0  0  0  0  0
   -4.8037    2.0449   -1.9310 H   0  0  0  0  0  0  0  0  0  0  0  0
   -6.6368    3.2497   -0.4474 H   0  0  0  0  0  0  0  0  0  0  0  0
   -6.9868    1.6915   -1.1723 H   0  0  0  0  0  0  0  0  0  0  0  0
   -6.9903    0.5620    0.8212 H   0  0  0  0  0  0  0  0  0  0  0  0
   -7.4624    2.1457    1.4250 H   0  0  0  0  0  0  0  0  0  0  0  0
   -5.6572    1.1729    2.8211 H   0  0  0  0  0  0  0  0  0  0  0  0
   -5.0617    2.6222    2.0107 H   0  0  0  0  0  0  0  0  0  0  0  0
    2.3835    0.8507   -0.2414 H   0  0  0  0  0  0  0  0  0  0  0  0
    1.9194    0.0211    1.2639 H   0  0  0  0  0  0  0  0  0  0  0  0
    4.1391    1.1866    1.3991 H   0  0  0  0  0  0  0  0  0  0  0  0
    5.1583   -1.0853    1.8680 H   0  0  0  0  0  0  0  0  0  0  0  0
  1  2  1  0
  2  3  1  0
  3  4  1  0
  4  5  2  0
  4  6  1  0
  6  7  1  0
  7  8  2  0
  8  9  1  0
  9 10  1  0
  9 11  2  0
 11 12  1  0
 12 13  1  0
 13 14  2  0
 14 15  1  0
 15 16  2  0
 16 17  1  0
 16 18  1  0
 18 19  1  0
 19 20  1  0
 20 21  1  0
 21 22  1  0
 22 23  1  0
 23 24  1  0
 24 25  1  0
 25 26  2  0
 11 27  1  0
 27 28  1  0
 28 29  1  0
 29 30  1  0
 29  3  1  0
 27  6  2  0
 17 12  2  0
 24 19  1  0
 25 15  1  0
  1 31  1  0
  1 32  1  0
  1 33  1  0
  2 34  1  0
  2 35  1  0
  7 36  1  0
  8 37  1  0
 13 38  1  0
 14 39  1  0
 17 40  1  0
 18 41  1  0
 19 42  1  0
 20 43  1  0
 20 44  1  0
 21 45  1  0
 21 46  1  0
 22 47  1  0
 22 48  1  0
 23 49  1  0
 23 50  1  0
 28 51  1  0
 28 52  1  0
 29 53  1  0
 30 54  1  0
M  END
>  <smiles>
CCN1C(=O)c2ccc(F)c(-c3ccc4c(c3)NC3CCCCN3C4=O)c2CC1O

$$$$
