mol_0386b851d44c
     RDKit          3D

 42 44  0  0  0  0  0  0  0  0999 V2000
    5.9556   -0.6730    0.6071 C   0  0  0  0  0  0  0  0  0  0  0  0
    5.1686    0.5109    0.5705 O   0  0  0  0  0  0  0  0  0  0  0  0
    3.8165    0.3549    0.4477 C   0  0  0  0  0  0  0  0  0  0  0  0
    3.0918    1.5395    0.4359 C   0  0  0  0  0  0  0  0  0  0  0  0
    1.6851    1.5528    0.3198 C   0  0  0  0  0  0  0  0  0  0  0  0
    1.0424    2.9191    0.2861 C   0  0  0  0  0  0  0  0  0  0  0  0
    0.4974    3.2087   -0.9935 O   0  0  0  0  0  0  0  0  0  0  0  0
    0.9635    0.3173    0.2091 C   0  0  0  0  0  0  0  0  0  0  0  0
   -0.4447    0.1393    0.0930 C   0  0  0  0  0  0  0  0  0  0  0  0
   -1.0305   -1.1348   -0.0759 C   0  0  0  0  0  0  0  0  0  0  0  0
   -0.2549   -2.2772   -0.0952 C   0  0  0  0  0  0  0  0  0  0  0  0
    1.1199   -2.1435    0.0579 C   0  0  0  0  0  0  0  0  0  0  0  0
    1.7339   -0.8834    0.2025 C   0  0  0  0  0  0  0  0  0  0  0  0
    3.1332   -0.8469    0.3280 C   0  0  0  0  0  0  0  0  0  0  0  0
   -2.5368   -1.0512   -0.2676 C   0  0  0  0  0  0  0  0  0  0  0  0
   -3.2955   -2.1590    0.4750 C   0  0  0  0  0  0  0  0  0  0  0  0
   -2.8415   -1.1189   -1.7746 C   0  0  0  0  0  0  0  0  0  0  0  0
   -2.7990    0.3345    0.3756 C   0  0  0  0  0  0  0  0  0  0  0  0
   -4.0783    1.0104   -0.0540 C   0  0  0  0  0  0  0  0  0  0  0  0
   -5.1238    0.4620   -0.3615 O   0  0  0  0  0  0  0  0  0  0  0  0
   -4.0248    2.3539    0.0116 O   0  0  0  0  0  0  0  0  0  0  0  0
   -1.5422    1.1721    0.0766 C   0  0  0  0  0  0  0  0  0  0  0  0
    5.8691   -1.2328   -0.3300 H   0  0  0  0  0  0  0  0  0  0  0  0
    7.0023   -0.3751    0.7213 H   0  0  0  0  0  0  0  0  0  0  0  0
    5.6912   -1.2969    1.4673 H   0  0  0  0  0  0  0  0  0  0  0  0
    3.6420    2.4765    0.5156 H   0  0  0  0  0  0  0  0  0  0  0  0
    0.2798    3.0234    1.0604 H   0  0  0  0  0  0  0  0  0  0  0  0
    1.7783    3.7030    0.4982 H   0  0  0  0  0  0  0  0  0  0  0  0
    0.8502    2.5503   -1.6170 H   0  0  0  0  0  0  0  0  0  0  0  0
   -0.6935   -3.2603   -0.2326 H   0  0  0  0  0  0  0  0  0  0  0  0
    1.7238   -3.0497    0.0470 H   0  0  0  0  0  0  0  0  0  0  0  0
    3.6787   -1.7859    0.3232 H   0  0  0  0  0  0  0  0  0  0  0  0
   -3.0781   -3.1474    0.0546 H   0  0  0  0  0  0  0  0  0  0  0  0
   -4.3784   -2.0097    0.4115 H   0  0  0  0  0  0  0  0  0  0  0  0
   -3.0238   -2.1905    1.5366 H   0  0  0  0  0  0  0  0  0  0  0  0
   -3.9172   -1.0856   -1.9738 H   0  0  0  0  0  0  0  0  0  0  0  0
   -2.3736   -0.2954   -2.3260 H   0  0  0  0  0  0  0  0  0  0  0  0
   -2.4652   -2.0524   -2.2106 H   0  0  0  0  0  0  0  0  0  0  0  0
   -2.8717    0.2202    1.4686 H   0  0  0  0  0  0  0  0  0  0  0  0
   -4.9228    2.6459   -0.2527 H   0  0  0  0  0  0  0  0  0  0  0  0
   -1.5975    1.6589   -0.9022 H   0  0  0  0  0  0  0  0  0  0  0  0
   -1.4295    1.9162    0.8664 H   0  0  0  0  0  0  0  0  0  0  0  0
  1  2  1  0
  2  3  1  0
  3  4  1  0
  4  5  2  0
  5  6  1  0
  6  7  1  0
  5  8  1  0
  8  9  2  0
  9 10  1  0
 10 11  2  0
 11 12  1  0
 12 13  2  0
 13 14  1  0
 10 15  1  0
 15 16  1  0
 15 17  1  0
 15 18  1  0
 18 19  1  0
 19 20  2  0
 19 21  1  0
 18 22  1  0
 14  3  2  0
 13  8  1  0
 22  9  1  0
  1 23  1  0
  1 24  1  0
  1 25  1  0
  4 26  1  0
  6 27  1  0
  6 28  1  0
  7 29  1  0
 11 30  1  0
 12 31  1  0
 14 32  1  0
 16 33  1  0
 16 34  1  0
 16 35  1  0
 17 36  1  0
 17 37  1  0
 17 38  1  0
 18 39  1  0
 21 40  1  0
 22 41  1  0
 22 42  1  0
M  END
>  <smiles>
COc1cc(CO)c2c3c(ccc2c1)C(C)(C)C(C(=O)O)C3

$$$$
