mol_7ffd2252b406
     RDKit          3D

 48 50  0  0  0  0  0  0  0  0999 V2000
    4.9457    1.8597    0.6954 C   0  0  0  0  0  0  0  0  0  0  0  0
    4.7638    0.4477    0.4081 N   0  0  0  0  0  0  0  0  0  0  0  0
    5.9661   -0.3578    0.2854 C   0  0  0  0  0  0  0  0  0  0  0  0
    5.6876   -1.8043    0.6192 C   0  0  0  0  0  0  0  0  0  0  0  0
    4.5642   -2.2699   -0.2774 C   0  0  0  0  0  0  0  0  0  0  0  0
    3.4179   -1.3777   -0.2183 N   0  0  0  0  0  0  0  0  0  0  0  0
    2.1205   -1.9095   -0.6402 C   0  0  0  0  0  0  0  0  0  0  0  0
    1.1820   -2.1220    0.5449 C   0  0  0  0  0  0  0  0  0  0  0  0
   -0.1794   -1.5140    0.2769 C   0  0  0  0  0  0  0  0  0  0  0  0
   -1.1592   -2.2343    0.1137 O   0  0  0  0  0  0  0  0  0  0  0  0
   -0.1536   -0.1325    0.2554 N   0  0  0  0  0  0  0  0  0  0  0  0
   -1.2345    0.7523    0.0748 C   0  0  0  0  0  0  0  0  0  0  0  0
   -0.9352    2.1198    0.0558 C   0  0  0  0  0  0  0  0  0  0  0  0
   -1.9449    3.0679   -0.1113 C   0  0  0  0  0  0  0  0  0  0  0  0
   -3.2676    2.6553   -0.2619 C   0  0  0  0  0  0  0  0  0  0  0  0
   -3.5892    1.2916   -0.2504 C   0  0  0  0  0  0  0  0  0  0  0  0
   -4.9861    0.8488   -0.3954 C   0  0  0  0  0  0  0  0  0  0  0  0
   -5.7480    1.2162   -1.4401 C   0  0  0  0  0  0  0  0  0  0  0  0
   -7.1125    0.7503   -1.5414 C   0  0  0  0  0  0  0  0  0  0  0  0
   -7.6334   -0.0506   -0.6014 C   0  0  0  0  0  0  0  0  0  0  0  0
   -6.7982   -0.4612    0.5563 C   0  0  0  0  0  0  0  0  0  0  0  0
   -7.2506   -1.1858    1.4350 O   0  0  0  0  0  0  0  0  0  0  0  0
   -5.5145    0.0237    0.5709 N   0  0  0  0  0  0  0  0  0  0  0  0
   -2.5627    0.3468   -0.0786 C   0  0  0  0  0  0  0  0  0  0  0  0
    3.5044   -0.0336    0.1092 C   0  0  0  0  0  0  0  0  0  0  0  0
    2.4955    0.6742    0.1502 O   0  0  0  0  0  0  0  0  0  0  0  0
    5.5304    2.3081   -0.1133 H   0  0  0  0  0  0  0  0  0  0  0  0
    5.4895    1.9616    1.6391 H   0  0  0  0  0  0  0  0  0  0  0  0
    3.9940    2.3906    0.7790 H   0  0  0  0  0  0  0  0  0  0  0  0
    6.7296    0.0335    0.9668 H   0  0  0  0  0  0  0  0  0  0  0  0
    6.3363   -0.2499   -0.7407 H   0  0  0  0  0  0  0  0  0  0  0  0
    5.3874   -1.8939    1.6707 H   0  0  0  0  0  0  0  0  0  0  0  0
    6.5815   -2.4192    0.4734 H   0  0  0  0  0  0  0  0  0  0  0  0
    4.2469   -3.2729    0.0296 H   0  0  0  0  0  0  0  0  0  0  0  0
    4.8885   -2.3193   -1.3233 H   0  0  0  0  0  0  0  0  0  0  0  0
    1.7006   -1.2170   -1.3799 H   0  0  0  0  0  0  0  0  0  0  0  0
    2.2812   -2.8587   -1.1651 H   0  0  0  0  0  0  0  0  0  0  0  0
    1.5739   -1.6900    1.4736 H   0  0  0  0  0  0  0  0  0  0  0  0
    1.0520   -3.1951    0.7283 H   0  0  0  0  0  0  0  0  0  0  0  0
    0.7686    0.3056    0.3508 H   0  0  0  0  0  0  0  0  0  0  0  0
    0.0918    2.4612    0.1713 H   0  0  0  0  0  0  0  0  0  0  0  0
   -1.6996    4.1266   -0.1194 H   0  0  0  0  0  0  0  0  0  0  0  0
   -4.0470    3.4053   -0.3764 H   0  0  0  0  0  0  0  0  0  0  0  0
   -5.3682    1.8513   -2.2343 H   0  0  0  0  0  0  0  0  0  0  0  0
   -7.7006    1.0618   -2.3979 H   0  0  0  0  0  0  0  0  0  0  0  0
   -8.6469   -0.4261   -0.6346 H   0  0  0  0  0  0  0  0  0  0  0  0
   -4.9425   -0.2578    1.3574 H   0  0  0  0  0  0  0  0  0  0  0  0
   -2.8253   -0.7070   -0.0775 H   0  0  0  0  0  0  0  0  0  0  0  0
  1  2  1  0
  2  3  1  0
  3  4  1  0
  4  5  1  0
  5  6  1  0
  6  7  1  0
  7  8  1  0
  8  9  1  0
  9 10  2  0
  9 11  1  0
 11 12  1  0
 12 13  2  0
 13 14  1  0
 14 15  2  0
 15 16  1  0
 16 17  1  0
 17 18  2  0
 18 19  1  0
 19 20  2  0
 20 21  1  0
 21 22  2  0
 21 23  1  0
 16 24  2  0
  6 25  1  0
 25 26  2  0
 25  2  1  0
 24 12  1  0
 23 17  1  0
  1 27  1  0
  1 28  1  0
  1 29  1  0
  3 30  1  0
  3 31  1  0
  4 32  1  0
  4 33  1  0
  5 34  1  0
  5 35  1  0
  7 36  1  0
  7 37  1  0
  8 38  1  0
  8 39  1  0
 11 40  1  0
 13 41  1  0
 14 42  1  0
 15 43  1  0
 18 44  1  0
 19 45  1  0
 20 46  1  0
 23 47  1  0
 24 48  1  0
M  END
>  <smiles>
CN1CCCN(CCC(=O)Nc2cccc(-c3cccc(=O)[nH]3)c2)C1=O

$$$$
