mol_63ab5edf1e23
     RDKit          3D

 46 47  0  0  0  0  0  0  0  0999 V2000
   -6.3508    3.3263    0.6429 C   0  0  0  0  0  0  0  0  0  0  0  0
   -5.8060    2.1029    0.1621 O   0  0  0  0  0  0  0  0  0  0  0  0
   -4.5003    1.8457    0.4694 C   0  0  0  0  0  0  0  0  0  0  0  0
   -3.6575    2.6540    1.2196 C   0  0  0  0  0  0  0  0  0  0  0  0
   -2.3363    2.2532    1.4535 C   0  0  0  0  0  0  0  0  0  0  0  0
   -1.8256    1.0609    0.9583 C   0  0  0  0  0  0  0  0  0  0  0  0
   -0.5542    0.7518    1.2312 N   0  0  0  0  0  0  0  0  0  0  0  0
   -0.0801   -0.4062    0.7454 C   0  0  0  0  0  0  0  0  0  0  0  0
    1.3588   -0.7426    1.0229 C   0  0  0  0  0  0  0  0  0  0  0  0
    2.2785   -0.1658   -0.0523 C   0  0  0  0  0  0  0  0  0  0  0  0
    3.7395   -0.5207    0.2251 C   0  0  0  0  0  0  0  0  0  0  0  0
    4.6878    0.0444   -0.8228 C   0  0  0  0  0  0  0  0  0  0  0  0
    4.2649    0.7194   -1.7619 O   0  0  0  0  0  0  0  0  0  0  0  0
    6.0407   -0.2378   -0.6644 N   0  0  0  0  0  0  0  0  0  0  0  0
    6.6187   -1.0244    0.4156 C   0  0  0  0  0  0  0  0  0  0  0  0
    6.9846    0.2748   -1.6455 C   0  0  0  0  0  0  0  0  0  0  0  0
   -0.7909   -1.2743    0.0090 N   0  0  0  0  0  0  0  0  0  0  0  0
   -2.0733   -0.9471   -0.2664 C   0  0  0  0  0  0  0  0  0  0  0  0
   -2.8232   -1.9663   -1.0846 C   0  0  0  0  0  0  0  0  0  0  0  0
   -3.6106   -2.9297   -0.2037 C   0  0  0  0  0  0  0  0  0  0  0  0
   -4.3429   -3.8523   -1.0059 O   0  0  0  0  0  0  0  0  0  0  0  0
   -2.6660    0.2376    0.1982 C   0  0  0  0  0  0  0  0  0  0  0  0
   -4.0044    0.6438   -0.0378 C   0  0  0  0  0  0  0  0  0  0  0  0
   -7.3909    3.3834    0.3078 H   0  0  0  0  0  0  0  0  0  0  0  0
   -5.8180    4.1868    0.2248 H   0  0  0  0  0  0  0  0  0  0  0  0
   -6.3511    3.3544    1.7375 H   0  0  0  0  0  0  0  0  0  0  0  0
   -3.9851    3.5992    1.6393 H   0  0  0  0  0  0  0  0  0  0  0  0
   -1.6843    2.8955    2.0425 H   0  0  0  0  0  0  0  0  0  0  0  0
    1.4697   -1.8326    1.0714 H   0  0  0  0  0  0  0  0  0  0  0  0
    1.6353   -0.3497    2.0087 H   0  0  0  0  0  0  0  0  0  0  0  0
    1.9863   -0.5472   -1.0394 H   0  0  0  0  0  0  0  0  0  0  0  0
    2.1637    0.9251   -0.0965 H   0  0  0  0  0  0  0  0  0  0  0  0
    3.8485   -1.6111    0.2391 H   0  0  0  0  0  0  0  0  0  0  0  0
    4.0286   -0.1208    1.2037 H   0  0  0  0  0  0  0  0  0  0  0  0
    7.3532   -0.4074    0.9420 H   0  0  0  0  0  0  0  0  0  0  0  0
    5.8802   -1.3742    1.1366 H   0  0  0  0  0  0  0  0  0  0  0  0
    7.1221   -1.8937   -0.0180 H   0  0  0  0  0  0  0  0  0  0  0  0
    7.7091    0.9156   -1.1341 H   0  0  0  0  0  0  0  0  0  0  0  0
    6.4979    0.8552   -2.4331 H   0  0  0  0  0  0  0  0  0  0  0  0
    7.5074   -0.5699   -2.1042 H   0  0  0  0  0  0  0  0  0  0  0  0
   -3.4767   -1.4806   -1.8184 H   0  0  0  0  0  0  0  0  0  0  0  0
   -2.1122   -2.5414   -1.6928 H   0  0  0  0  0  0  0  0  0  0  0  0
   -2.9378   -3.5055    0.4407 H   0  0  0  0  0  0  0  0  0  0  0  0
   -4.3206   -2.4049    0.4441 H   0  0  0  0  0  0  0  0  0  0  0  0
   -4.9988   -3.3481   -1.5168 H   0  0  0  0  0  0  0  0  0  0  0  0
   -4.6779    0.0242   -0.6239 H   0  0  0  0  0  0  0  0  0  0  0  0
  1  2  1  0
  2  3  1  0
  3  4  1  0
  4  5  2  0
  5  6  1  0
  6  7  2  0
  7  8  1  0
  8  9  1  0
  9 10  1  0
 10 11  1  0
 11 12  1  0
 12 13  2  0
 12 14  1  0
 14 15  1  0
 14 16  1  0
  8 17  2  0
 17 18  1  0
 18 19  1  0
 19 20  1  0
 20 21  1  0
 18 22  2  0
 22 23  1  0
 23  3  2  0
 22  6  1  0
  1 24  1  0
  1 25  1  0
  1 26  1  0
  4 27  1  0
  5 28  1  0
  9 29  1  0
  9 30  1  0
 10 31  1  0
 10 32  1  0
 11 33  1  0
 11 34  1  0
 15 35  1  0
 15 36  1  0
 15 37  1  0
 16 38  1  0
 16 39  1  0
 16 40  1  0
 19 41  1  0
 19 42  1  0
 20 43  1  0
 20 44  1  0
 21 45  1  0
 23 46  1  0
M  END
>  <smiles>
COc1ccc2nc(CCCC(=O)N(C)C)nc(CCO)c2c1

$$$$
