mol_8d3b0079c053
     RDKit          3D

 51 54  0  0  0  0  0  0  0  0999 V2000
    5.4184   -2.0544    2.3833 N   0  0  0  0  0  0  0  0  0  0  0  0
    5.4882   -1.6185    0.9766 C   0  0  0  0  0  0  0  0  0  0  0  0
    6.4928   -0.4864    0.7714 C   0  0  0  0  0  0  0  0  0  0  0  0
    6.0422    0.8427    1.3771 C   0  0  0  0  0  0  0  0  0  0  0  0
    4.5762    0.8356    1.7926 C   0  0  0  0  0  0  0  0  0  0  0  0
    3.7293    0.1385    0.8238 N   0  0  0  0  0  0  0  0  0  0  0  0
    2.5197    0.7591    0.3646 C   0  0  0  0  0  0  0  0  0  0  0  0
    2.4294    2.1521    0.2393 C   0  0  0  0  0  0  0  0  0  0  0  0
    1.2583    2.7625   -0.2152 C   0  0  0  0  0  0  0  0  0  0  0  0
    0.1513    1.9881   -0.5562 C   0  0  0  0  0  0  0  0  0  0  0  0
    0.1931    0.5907   -0.4496 C   0  0  0  0  0  0  0  0  0  0  0  0
   -0.9382   -0.2174   -0.8035 N   0  0  0  0  0  0  0  0  0  0  0  0
   -0.7751   -1.4234   -1.4688 C   0  0  0  0  0  0  0  0  0  0  0  0
   -1.7820   -2.2199   -1.8386 C   0  0  0  0  0  0  0  0  0  0  0  0
   -3.1708   -1.8099   -1.5190 C   0  0  0  0  0  0  0  0  0  0  0  0
   -4.0894   -2.5625   -1.8378 O   0  0  0  0  0  0  0  0  0  0  0  0
   -3.3805   -0.4814   -0.7923 C   0  0  0  0  0  0  0  0  0  0  0  0
   -4.6752   -0.0438   -0.4563 N   0  0  0  0  0  0  0  0  0  0  0  0
   -4.9417    0.9538    0.5990 C   0  0  0  0  0  0  0  0  0  0  0  0
   -6.3177    0.7126    1.2381 C   0  0  0  0  0  0  0  0  0  0  0  0
   -7.4064    0.8198    0.3127 O   0  0  0  0  0  0  0  0  0  0  0  0
   -7.0461    0.4393   -1.0227 C   0  0  0  0  0  0  0  0  0  0  0  0
   -5.8964   -0.5794   -1.1005 C   0  0  0  0  0  0  0  0  0  0  0  0
   -2.2397    0.1787   -0.5029 C   0  0  0  0  0  0  0  0  0  0  0  0
    1.3887    0.0028    0.0156 C   0  0  0  0  0  0  0  0  0  0  0  0
    4.0941   -1.1773    0.4740 C   0  0  0  0  0  0  0  0  0  0  0  0
    3.4283   -1.9615   -0.2043 O   0  0  0  0  0  0  0  0  0  0  0  0
    4.7289   -2.8072    2.4466 H   0  0  0  0  0  0  0  0  0  0  0  0
    6.3097   -2.4758    2.6431 H   0  0  0  0  0  0  0  0  0  0  0  0
    5.8007   -2.4769    0.3694 H   0  0  0  0  0  0  0  0  0  0  0  0
    6.6301   -0.3390   -0.3085 H   0  0  0  0  0  0  0  0  0  0  0  0
    7.4796   -0.7615    1.1634 H   0  0  0  0  0  0  0  0  0  0  0  0
    6.6623    1.0905    2.2466 H   0  0  0  0  0  0  0  0  0  0  0  0
    6.2118    1.6387    0.6413 H   0  0  0  0  0  0  0  0  0  0  0  0
    4.4639    0.3113    2.7495 H   0  0  0  0  0  0  0  0  0  0  0  0
    4.2475    1.8575    1.9956 H   0  0  0  0  0  0  0  0  0  0  0  0
    3.2797    2.7969    0.4391 H   0  0  0  0  0  0  0  0  0  0  0  0
    1.2174    3.8433   -0.3249 H   0  0  0  0  0  0  0  0  0  0  0  0
   -0.7331    2.4877   -0.9429 H   0  0  0  0  0  0  0  0  0  0  0  0
    0.2477   -1.6952   -1.7171 H   0  0  0  0  0  0  0  0  0  0  0  0
   -1.6405   -3.1526   -2.3655 H   0  0  0  0  0  0  0  0  0  0  0  0
   -4.1841    0.8951    1.3884 H   0  0  0  0  0  0  0  0  0  0  0  0
   -4.9033    1.9543    0.1529 H   0  0  0  0  0  0  0  0  0  0  0  0
   -6.4939    1.4401    2.0368 H   0  0  0  0  0  0  0  0  0  0  0  0
   -6.3600   -0.2855    1.6900 H   0  0  0  0  0  0  0  0  0  0  0  0
   -7.9426    0.0319   -1.5011 H   0  0  0  0  0  0  0  0  0  0  0  0
   -6.7764    1.3543   -1.5634 H   0  0  0  0  0  0  0  0  0  0  0  0
   -6.1875   -1.5061   -0.5930 H   0  0  0  0  0  0  0  0  0  0  0  0
   -5.7149   -0.7874   -2.1604 H   0  0  0  0  0  0  0  0  0  0  0  0
   -2.2908    1.1178    0.0352 H   0  0  0  0  0  0  0  0  0  0  0  0
    1.3974   -1.0730    0.1636 H   0  0  0  0  0  0  0  0  0  0  0  0
  1  2  1  0
  2  3  1  0
  3  4  1  0
  4  5  1  0
  5  6  1  0
  6  7  1  0
  7  8  2  0
  8  9  1  0
  9 10  2  0
 10 11  1  0
 11 12  1  0
 12 13  1  0
 13 14  2  0
 14 15  1  0
 15 16  2  0
 15 17  1  0
 17 18  1  0
 18 19  1  0
 19 20  1  0
 20 21  1  0
 21 22  1  0
 22 23  1  0
 17 24  2  0
 11 25  2  0
  6 26  1  0
 26 27  2  0
 26  2  1  0
 25  7  1  0
 24 12  1  0
 23 18  1  0
  1 28  1  0
  1 29  1  0
  2 30  1  0
  3 31  1  0
  3 32  1  0
  4 33  1  0
  4 34  1  0
  5 35  1  0
  5 36  1  0
  8 37  1  0
  9 38  1  0
 10 39  1  0
 13 40  1  0
 14 41  1  0
 19 42  1  0
 19 43  1  0
 20 44  1  0
 20 45  1  0
 22 46  1  0
 22 47  1  0
 23 48  1  0
 23 49  1  0
 24 50  1  0
 25 51  1  0
M  END
>  <smiles>
NC1CCCN(c2cccc(-n3ccc(=O)c(N4CCOCC4)c3)c2)C1=O

$$$$
