mol_67728fe8e188
     RDKit          3D

 46 51  0  0  0  0  0  0  0  0999 V2000
   -4.1761    2.1431    2.2820 O   0  0  0  0  0  0  0  0  0  0  0  0
   -4.9132    1.7685    1.3860 C   0  0  0  0  0  0  0  0  0  0  0  0
   -6.0684    2.4324    1.1516 O   0  0  0  0  0  0  0  0  0  0  0  0
   -4.7503    0.5813    0.4419 C   0  0  0  0  0  0  0  0  0  0  0  0
   -3.3926   -0.0071    0.4850 N   0  0  0  0  0  0  0  0  0  0  0  0
   -2.3975    0.8930   -0.1317 C   0  0  0  0  0  0  0  0  0  0  0  0
   -0.9797    0.3409   -0.1695 C   0  0  0  0  0  0  0  0  0  0  0  0
    0.1531    1.0920   -0.2375 C   0  0  0  0  0  0  0  0  0  0  0  0
    0.0984    2.5486   -0.3761 C   0  0  0  0  0  0  0  0  0  0  0  0
   -1.0809    3.1726   -0.5751 F   0  0  0  0  0  0  0  0  0  0  0  0
    1.2036    3.2978   -0.3730 C   0  0  0  0  0  0  0  0  0  0  0  0
    2.5772    2.7186   -0.2637 C   0  0  0  0  0  0  0  0  0  0  0  0
    2.6169    1.2087   -0.1806 C   0  0  0  0  0  0  0  0  0  0  0  0
    1.4937    0.4358   -0.1796 C   0  0  0  0  0  0  0  0  0  0  0  0
    1.5777   -0.9708   -0.1017 N   0  0  0  0  0  0  0  0  0  0  0  0
    2.8165   -1.6238   -0.0229 C   0  0  0  0  0  0  0  0  0  0  0  0
    2.9416   -2.9618    0.0231 C   0  0  0  0  0  0  0  0  0  0  0  0
    1.7501   -3.8694   -0.0113 C   0  0  0  0  0  0  0  0  0  0  0  0
    0.4244   -3.1526   -0.0689 C   0  0  0  0  0  0  0  0  0  0  0  0
   -0.6844   -3.9384   -0.0885 N   0  0  0  0  0  0  0  0  0  0  0  0
   -1.8754   -3.3087   -0.1227 C   0  0  0  0  0  0  0  0  0  0  0  0
   -2.0244   -1.9284   -0.1353 C   0  0  0  0  0  0  0  0  0  0  0  0
   -0.8698   -1.1360   -0.1339 C   0  0  0  0  0  0  0  0  0  0  0  0
    0.3860   -1.7502   -0.1008 C   0  0  0  0  0  0  0  0  0  0  0  0
   -3.3832   -1.2999   -0.2013 C   0  0  0  0  0  0  0  0  0  0  0  0
    4.0082   -0.7931    0.0174 C   0  0  0  0  0  0  0  0  0  0  0  0
    3.9262    0.5489   -0.0625 C   0  0  0  0  0  0  0  0  0  0  0  0
    5.2333    1.2407    0.0265 C   0  0  0  0  0  0  0  0  0  0  0  0
    6.1830    0.8946    0.7087 O   0  0  0  0  0  0  0  0  0  0  0  0
    5.3366    2.2978   -0.7945 O   0  0  0  0  0  0  0  0  0  0  0  0
   -6.0560    3.1462    1.8245 H   0  0  0  0  0  0  0  0  0  0  0  0
   -5.4853   -0.1626    0.7731 H   0  0  0  0  0  0  0  0  0  0  0  0
   -5.0050    0.8968   -0.5770 H   0  0  0  0  0  0  0  0  0  0  0  0
   -2.6977    1.1466   -1.1576 H   0  0  0  0  0  0  0  0  0  0  0  0
   -2.3974    1.8116    0.4606 H   0  0  0  0  0  0  0  0  0  0  0  0
    1.1141    4.3727   -0.4913 H   0  0  0  0  0  0  0  0  0  0  0  0
    3.1156    3.0501   -1.1584 H   0  0  0  0  0  0  0  0  0  0  0  0
    3.0657    3.1529    0.6165 H   0  0  0  0  0  0  0  0  0  0  0  0
    3.9144   -3.4390    0.0875 H   0  0  0  0  0  0  0  0  0  0  0  0
    1.7642   -4.5014    0.8843 H   0  0  0  0  0  0  0  0  0  0  0  0
    1.8311   -4.5245   -0.8865 H   0  0  0  0  0  0  0  0  0  0  0  0
   -2.7372   -3.9708   -0.1363 H   0  0  0  0  0  0  0  0  0  0  0  0
   -4.1013   -1.9684    0.2904 H   0  0  0  0  0  0  0  0  0  0  0  0
   -3.6828   -1.2028   -1.2532 H   0  0  0  0  0  0  0  0  0  0  0  0
    4.9705   -1.2895    0.1198 H   0  0  0  0  0  0  0  0  0  0  0  0
    6.2563    2.6070   -0.6556 H   0  0  0  0  0  0  0  0  0  0  0  0
  1  2  2  0
  2  3  1  0
  2  4  1  0
  4  5  1  0
  5  6  1  0
  6  7  1  0
  7  8  2  0
  8  9  1  0
  9 10  1  0
  9 11  2  0
 11 12  1  0
 12 13  1  0
 13 14  2  0
 14 15  1  0
 15 16  1  0
 16 17  2  0
 17 18  1  0
 18 19  1  0
 19 20  1  0
 20 21  2  0
 21 22  1  0
 22 23  2  0
 23 24  1  0
 22 25  1  0
 16 26  1  0
 26 27  2  0
 27 28  1  0
 28 29  2  0
 28 30  1  0
 25  5  1  0
 23  7  1  0
 14  8  1  0
 24 15  1  0
 27 13  1  0
 24 19  2  0
  3 31  1  0
  4 32  1  0
  4 33  1  0
  6 34  1  0
  6 35  1  0
 11 36  1  0
 12 37  1  0
 12 38  1  0
 17 39  1  0
 18 40  1  0
 18 41  1  0
 21 42  1  0
 25 43  1  0
 25 44  1  0
 26 45  1  0
 30 46  1  0
M  END
>  <smiles>
O=C(O)CN1CC2=C3C(F)=CCC4=C3N3C(=CCc5ncc(c2c53)C1)C=C4C(=O)O

$$$$
