mol_46e26c15dd15
     RDKit          3D

 45 49  0  0  0  0  0  0  0  0999 V2000
    6.1168    1.7875    0.1717 O   0  0  0  0  0  0  0  0  0  0  0  0
    6.0719    0.5861   -0.0183 C   0  0  0  0  0  0  0  0  0  0  0  0
    7.1783   -0.1131   -0.3268 O   0  0  0  0  0  0  0  0  0  0  0  0
    4.8554   -0.2592    0.0542 C   0  0  0  0  0  0  0  0  0  0  0  0
    4.8942   -1.6366   -0.1865 C   0  0  0  0  0  0  0  0  0  0  0  0
    3.7235   -2.3907   -0.1086 C   0  0  0  0  0  0  0  0  0  0  0  0
    2.5122   -1.7744    0.2104 C   0  0  0  0  0  0  0  0  0  0  0  0
    2.4512   -0.3922    0.4566 C   0  0  0  0  0  0  0  0  0  0  0  0
    1.1382    0.3017    0.8100 C   0  0  0  0  0  0  0  0  0  0  0  0
    0.6126   -0.2462    2.1313 C   0  0  0  0  0  0  0  0  0  0  0  0
   -0.6809    0.4156    2.5260 C   0  0  0  0  0  0  0  0  0  0  0  0
   -0.9063    0.6928    3.7045 O   0  0  0  0  0  0  0  0  0  0  0  0
   -1.6155    0.5734    1.5115 N   0  0  0  0  0  0  0  0  0  0  0  0
   -2.9739    0.9638    1.8787 C   0  0  0  0  0  0  0  0  0  0  0  0
   -4.0277    0.4054    0.9297 C   0  0  0  0  0  0  0  0  0  0  0  0
   -3.7086    0.8732   -0.4856 C   0  0  0  0  0  0  0  0  0  0  0  0
   -4.7433    0.3996   -1.5145 C   0  0  0  0  0  0  0  0  0  0  0  0
   -4.1190   -0.4018   -2.6473 C   0  0  0  0  0  0  0  0  0  0  0  0
   -2.9386    0.2305   -3.1531 O   0  0  0  0  0  0  0  0  0  0  0  0
   -1.9715    0.2785   -2.1838 C   0  0  0  0  0  0  0  0  0  0  0  0
   -0.6518    0.1239   -2.5815 C   0  0  0  0  0  0  0  0  0  0  0  0
    0.3593    0.1247   -1.6223 C   0  0  0  0  0  0  0  0  0  0  0  0
    0.0546    0.2381   -0.2531 C   0  0  0  0  0  0  0  0  0  0  0  0
   -1.2854    0.4263    0.1352 C   0  0  0  0  0  0  0  0  0  0  0  0
   -2.2954    0.4903   -0.8418 C   0  0  0  0  0  0  0  0  0  0  0  0
    3.6371    0.3573    0.3742 C   0  0  0  0  0  0  0  0  0  0  0  0
    7.8874    0.5636   -0.3365 H   0  0  0  0  0  0  0  0  0  0  0  0
    5.8296   -2.1315   -0.4359 H   0  0  0  0  0  0  0  0  0  0  0  0
    3.7542   -3.4611   -0.2985 H   0  0  0  0  0  0  0  0  0  0  0  0
    1.6104   -2.3829    0.2559 H   0  0  0  0  0  0  0  0  0  0  0  0
    1.3438    1.3737    0.9482 H   0  0  0  0  0  0  0  0  0  0  0  0
    0.4161   -1.3250    2.0838 H   0  0  0  0  0  0  0  0  0  0  0  0
    1.3465   -0.0812    2.9300 H   0  0  0  0  0  0  0  0  0  0  0  0
   -3.1948    0.6231    2.8968 H   0  0  0  0  0  0  0  0  0  0  0  0
   -3.0041    2.0605    1.8956 H   0  0  0  0  0  0  0  0  0  0  0  0
   -4.0308   -0.6913    0.9812 H   0  0  0  0  0  0  0  0  0  0  0  0
   -5.0214    0.7531    1.2346 H   0  0  0  0  0  0  0  0  0  0  0  0
   -3.7384    1.9733   -0.4851 H   0  0  0  0  0  0  0  0  0  0  0  0
   -5.5547   -0.1732   -1.0510 H   0  0  0  0  0  0  0  0  0  0  0  0
   -5.2137    1.2927   -1.9476 H   0  0  0  0  0  0  0  0  0  0  0  0
   -3.8840   -1.4265   -2.3287 H   0  0  0  0  0  0  0  0  0  0  0  0
   -4.8307   -0.4851   -3.4759 H   0  0  0  0  0  0  0  0  0  0  0  0
   -0.4095    0.0024   -3.6335 H   0  0  0  0  0  0  0  0  0  0  0  0
    1.3889    0.0300   -1.9613 H   0  0  0  0  0  0  0  0  0  0  0  0
    3.6179    1.4308    0.5597 H   0  0  0  0  0  0  0  0  0  0  0  0
  1  2  2  0
  2  3  1  0
  2  4  1  0
  4  5  1  0
  5  6  2  0
  6  7  1  0
  7  8  2  0
  8  9  1  0
  9 10  1  0
 10 11  1  0
 11 12  2  0
 11 13  1  0
 13 14  1  0
 14 15  1  0
 15 16  1  0
 16 17  1  0
 17 18  1  0
 18 19  1  0
 19 20  1  0
 20 21  1  0
 21 22  2  0
 22 23  1  0
 23 24  2  0
 24 25  1  0
  8 26  1  0
 26  4  2  0
 23  9  1  0
 24 13  1  0
 25 16  1  0
 25 20  2  0
  3 27  1  0
  5 28  1  0
  6 29  1  0
  7 30  1  0
  9 31  1  0
 10 32  1  0
 10 33  1  0
 14 34  1  0
 14 35  1  0
 15 36  1  0
 15 37  1  0
 16 38  1  0
 17 39  1  0
 17 40  1  0
 18 41  1  0
 18 42  1  0
 21 43  1  0
 22 44  1  0
 26 45  1  0
M  END
>  <smiles>
O=C(O)c1cccc(C2CC(=O)N3CCC4CCOc5ccc2c3c54)c1

$$$$
