mol_9db00f8359c8
     RDKit          3D

 66 70  0  0  0  0  0  0  0  0999 V2000
   -6.8200    2.8478    0.7785 C   0  0  0  0  0  0  0  0  0  0  0  0
   -5.4686    2.2131    0.6380 C   0  0  0  0  0  0  0  0  0  0  0  0
   -4.3498    2.8050    1.0723 C   0  0  0  0  0  0  0  0  0  0  0  0
   -3.0427    2.2021    0.9187 C   0  0  0  0  0  0  0  0  0  0  0  0
   -2.8817    0.9402    0.4291 C   0  0  0  0  0  0  0  0  0  0  0  0
   -4.0683    0.1713   -0.0147 C   0  0  0  0  0  0  0  0  0  0  0  0
   -3.9536   -1.1208   -0.4105 C   0  0  0  0  0  0  0  0  0  0  0  0
   -5.1197   -1.9739   -0.9151 C   0  0  0  0  0  0  0  0  0  0  0  0
   -5.4596   -3.1253    0.0362 C   0  0  0  0  0  0  0  0  0  0  0  0
   -4.9205   -2.4718   -2.3514 C   0  0  0  0  0  0  0  0  0  0  0  0
   -2.6204   -1.8011   -0.3665 C   0  0  0  0  0  0  0  0  0  0  0  0
   -2.4585   -2.9802   -0.6525 O   0  0  0  0  0  0  0  0  0  0  0  0
   -1.5190   -1.0088    0.0157 N   0  0  0  0  0  0  0  0  0  0  0  0
   -0.1846   -1.4162    0.0896 C   0  0  0  0  0  0  0  0  0  0  0  0
    0.2532   -2.8137   -0.2165 C   0  0  0  0  0  0  0  0  0  0  0  0
    0.5924   -0.3354    0.4728 C   0  0  0  0  0  0  0  0  0  0  0  0
    2.0810   -0.3317    0.6788 C   0  0  0  0  0  0  0  0  0  0  0  0
    2.8470   -0.1208   -0.6299 C   0  0  0  0  0  0  0  0  0  0  0  0
    4.2801   -0.0193   -0.4214 N   0  0  0  0  0  0  0  0  0  0  0  0
    5.0639   -1.1338   -0.2303 C   0  0  0  0  0  0  0  0  0  0  0  0
    4.6090   -2.2743   -0.2176 O   0  0  0  0  0  0  0  0  0  0  0  0
    6.5509   -0.8672   -0.0347 C   0  0  0  0  0  0  0  0  0  0  0  0
    6.8391    0.0750    1.1440 C   0  0  0  0  0  0  0  0  0  0  0  0
    7.4048    1.3458    0.5232 C   0  0  0  0  0  0  0  0  0  0  0  0
    8.1349    0.8444   -0.7094 C   0  0  0  0  0  0  0  0  0  0  0  0
    7.2052   -0.2249   -1.2650 C   0  0  0  0  0  0  0  0  0  0  0  0
   -0.2898    0.7723    0.6339 C   0  0  0  0  0  0  0  0  0  0  0  0
   -1.5810    0.3307    0.3834 C   0  0  0  0  0  0  0  0  0  0  0  0
    0.1130    2.1561    1.0225 C   0  0  0  0  0  0  0  0  0  0  0  0
   -0.9067    3.1851    0.5756 C   0  0  0  0  0  0  0  0  0  0  0  0
   -2.0831    3.0775    1.3720 O   0  0  0  0  0  0  0  0  0  0  0  0
   -5.4246    0.8639   -0.0158 C   0  0  0  0  0  0  0  0  0  0  0  0
   -6.7651    3.8316    1.2565 H   0  0  0  0  0  0  0  0  0  0  0  0
   -7.2808    2.9805   -0.2056 H   0  0  0  0  0  0  0  0  0  0  0  0
   -7.4753    2.2170    1.3876 H   0  0  0  0  0  0  0  0  0  0  0  0
   -4.3878    3.7798    1.5526 H   0  0  0  0  0  0  0  0  0  0  0  0
   -6.0248   -1.3590   -0.9619 H   0  0  0  0  0  0  0  0  0  0  0  0
   -5.6058   -2.7584    1.0581 H   0  0  0  0  0  0  0  0  0  0  0  0
   -4.6806   -3.8930    0.0592 H   0  0  0  0  0  0  0  0  0  0  0  0
   -6.3889   -3.6146   -0.2764 H   0  0  0  0  0  0  0  0  0  0  0  0
   -4.1491   -3.2435   -2.4268 H   0  0  0  0  0  0  0  0  0  0  0  0
   -4.6453   -1.6468   -3.0176 H   0  0  0  0  0  0  0  0  0  0  0  0
   -5.8506   -2.9089   -2.7323 H   0  0  0  0  0  0  0  0  0  0  0  0
   -0.2219   -3.5274    0.4638 H   0  0  0  0  0  0  0  0  0  0  0  0
    0.0123   -3.0781   -1.2510 H   0  0  0  0  0  0  0  0  0  0  0  0
    1.3350   -2.9302   -0.1011 H   0  0  0  0  0  0  0  0  0  0  0  0
    2.3912   -1.2699    1.1546 H   0  0  0  0  0  0  0  0  0  0  0  0
    2.3532    0.4563    1.3925 H   0  0  0  0  0  0  0  0  0  0  0  0
    2.5309    0.8091   -1.1159 H   0  0  0  0  0  0  0  0  0  0  0  0
    2.6517   -0.9423   -1.3292 H   0  0  0  0  0  0  0  0  0  0  0  0
    4.7056    0.8971   -0.4334 H   0  0  0  0  0  0  0  0  0  0  0  0
    7.0245   -1.8367    0.1679 H   0  0  0  0  0  0  0  0  0  0  0  0
    5.9666    0.2836    1.7713 H   0  0  0  0  0  0  0  0  0  0  0  0
    7.6012   -0.3800    1.7892 H   0  0  0  0  0  0  0  0  0  0  0  0
    6.5937    2.0239    0.2347 H   0  0  0  0  0  0  0  0  0  0  0  0
    8.0667    1.8818    1.2095 H   0  0  0  0  0  0  0  0  0  0  0  0
    9.0953    0.3980   -0.4251 H   0  0  0  0  0  0  0  0  0  0  0  0
    8.3301    1.6413   -1.4325 H   0  0  0  0  0  0  0  0  0  0  0  0
    7.7597   -0.9625   -1.8549 H   0  0  0  0  0  0  0  0  0  0  0  0
    6.4670    0.2300   -1.9352 H   0  0  0  0  0  0  0  0  0  0  0  0
    0.2360    2.1909    2.1117 H   0  0  0  0  0  0  0  0  0  0  0  0
    1.0785    2.3993    0.5645 H   0  0  0  0  0  0  0  0  0  0  0  0
   -1.1373    3.1288   -0.4967 H   0  0  0  0  0  0  0  0  0  0  0  0
   -0.4997    4.1860    0.7583 H   0  0  0  0  0  0  0  0  0  0  0  0
   -6.1447    0.2283    0.5160 H   0  0  0  0  0  0  0  0  0  0  0  0
   -5.7637    0.9770   -1.0537 H   0  0  0  0  0  0  0  0  0  0  0  0
  1  2  1  0
  2  3  2  0
  3  4  1  0
  4  5  2  0
  5  6  1  0
  6  7  2  0
  7  8  1  0
  8  9  1  0
  8 10  1  0
  7 11  1  0
 11 12  2  0
 11 13  1  0
 13 14  1  0
 14 15  1  0
 14 16  2  0
 16 17  1  0
 17 18  1  0
 18 19  1  0
 19 20  1  0
 20 21  2  0
 20 22  1  0
 22 23  1  0
 23 24  1  0
 24 25  1  0
 25 26  1  0
 16 27  1  0
 27 28  2  0
 27 29  1  0
 29 30  1  0
 30 31  1  0
  6 32  1  0
 32  2  1  0
 31  4  1  0
 28  5  1  0
 28 13  1  0
 26 22  1  0
  1 33  1  0
  1 34  1  0
  1 35  1  0
  3 36  1  0
  8 37  1  0
  9 38  1  0
  9 39  1  0
  9 40  1  0
 10 41  1  0
 10 42  1  0
 10 43  1  0
 15 44  1  0
 15 45  1  0
 15 46  1  0
 17 47  1  0
 17 48  1  0
 18 49  1  0
 18 50  1  0
 19 51  1  0
 22 52  1  0
 23 53  1  0
 23 54  1  0
 24 55  1  0
 24 56  1  0
 25 57  1  0
 25 58  1  0
 26 59  1  0
 26 60  1  0
 29 61  1  0
 29 62  1  0
 30 63  1  0
 30 64  1  0
 32 65  1  0
 32 66  1  0
M  END
>  <smiles>
CC1=CC2=c3c(c(C(C)C)c(=O)n4c(C)c(CCNC(=O)C5CCCC5)c(c34)CCO2)C1

$$$$
