mol_cd8656bd19ee
     RDKit          3D

 47 51  0  0  0  0  0  0  0  0999 V2000
    5.3192    0.6857   -1.8752 C   0  0  0  0  0  0  0  0  0  0  0  0
    4.9437   -0.5854   -1.1277 C   0  0  0  0  0  0  0  0  0  0  0  0
    3.5628   -0.4979   -0.5370 C   0  0  0  0  0  0  0  0  0  0  0  0
    2.2223   -1.0225   -1.4621 S   0  0  0  0  0  0  0  0  0  0  0  0
    1.1251   -0.6266   -0.2349 C   0  0  0  0  0  0  0  0  0  0  0  0
    1.7463   -0.0897    0.8794 C   0  0  0  0  0  0  0  0  0  0  0  0
    3.1823   -0.0750    0.7307 C   0  0  0  0  0  0  0  0  0  0  0  0
    4.1382    0.3467    1.7385 C   0  0  0  0  0  0  0  0  0  0  0  0
    5.0288    1.1677    1.5742 O   0  0  0  0  0  0  0  0  0  0  0  0
    4.0312   -0.3264    2.9025 O   0  0  0  0  0  0  0  0  0  0  0  0
    0.9554    0.3998    2.0207 C   0  0  0  0  0  0  0  0  0  0  0  0
    1.4886    0.7504    3.0719 O   0  0  0  0  0  0  0  0  0  0  0  0
   -0.4326    0.5571    1.7990 N   0  0  0  0  0  0  0  0  0  0  0  0
   -1.1456    1.2978    2.8373 C   0  0  0  0  0  0  0  0  0  0  0  0
   -2.5103    1.7529    2.4321 C   0  0  0  0  0  0  0  0  0  0  0  0
   -3.0445    1.4790    1.2339 C   0  0  0  0  0  0  0  0  0  0  0  0
   -4.4013    1.8872    0.8856 C   0  0  0  0  0  0  0  0  0  0  0  0
   -4.8970    1.5788   -0.3266 C   0  0  0  0  0  0  0  0  0  0  0  0
   -4.0904    0.8986   -1.3294 C   0  0  0  0  0  0  0  0  0  0  0  0
   -2.8360    0.4782   -1.0647 C   0  0  0  0  0  0  0  0  0  0  0  0
   -2.2794    0.6700    0.2778 C   0  0  0  0  0  0  0  0  0  0  0  0
   -1.0819    0.1497    0.6192 C   0  0  0  0  0  0  0  0  0  0  0  0
   -0.3618   -0.8973   -0.2410 C   0  0  0  0  0  0  0  0  0  0  0  0
   -1.0281   -1.2200   -1.6093 C   0  0  0  0  0  0  0  0  0  0  0  0
   -1.7809   -2.5746   -1.5828 C   0  0  0  0  0  0  0  0  0  0  0  0
   -2.8006   -2.7077   -0.5520 N   0  0  0  0  0  0  0  0  0  0  0  0
   -1.9127   -0.0718   -2.1095 C   0  0  0  0  0  0  0  0  0  0  0  0
    5.2880    1.5606   -1.2176 H   0  0  0  0  0  0  0  0  0  0  0  0
    4.6371    0.8718   -2.7116 H   0  0  0  0  0  0  0  0  0  0  0  0
    6.3332    0.6011   -2.2789 H   0  0  0  0  0  0  0  0  0  0  0  0
    5.0134   -1.4413   -1.8105 H   0  0  0  0  0  0  0  0  0  0  0  0
    5.6777   -0.7717   -0.3351 H   0  0  0  0  0  0  0  0  0  0  0  0
    4.6862    0.1076    3.4830 H   0  0  0  0  0  0  0  0  0  0  0  0
   -0.5507    2.1743    3.1215 H   0  0  0  0  0  0  0  0  0  0  0  0
   -1.2176    0.6478    3.7173 H   0  0  0  0  0  0  0  0  0  0  0  0
   -3.0658    2.3216    3.1712 H   0  0  0  0  0  0  0  0  0  0  0  0
   -5.0065    2.4128    1.6162 H   0  0  0  0  0  0  0  0  0  0  0  0
   -5.9075    1.8653   -0.6008 H   0  0  0  0  0  0  0  0  0  0  0  0
   -4.5171    0.8071   -2.3240 H   0  0  0  0  0  0  0  0  0  0  0  0
   -0.4273   -1.8244    0.3540 H   0  0  0  0  0  0  0  0  0  0  0  0
   -0.2687   -1.3581   -2.3865 H   0  0  0  0  0  0  0  0  0  0  0  0
   -2.2426   -2.7523   -2.5613 H   0  0  0  0  0  0  0  0  0  0  0  0
   -1.0476   -3.3768   -1.4364 H   0  0  0  0  0  0  0  0  0  0  0  0
   -3.5256   -1.9992   -0.6679 H   0  0  0  0  0  0  0  0  0  0  0  0
   -3.2696   -3.6083   -0.6449 H   0  0  0  0  0  0  0  0  0  0  0  0
   -2.4720   -0.3897   -2.9984 H   0  0  0  0  0  0  0  0  0  0  0  0
   -1.2577    0.7467   -2.4401 H   0  0  0  0  0  0  0  0  0  0  0  0
  1  2  1  0
  2  3  1  0
  3  4  1  0
  4  5  1  0
  5  6  2  0
  6  7  1  0
  7  8  1  0
  8  9  2  0
  8 10  1  0
  6 11  1  0
 11 12  2  0
 11 13  1  0
 13 14  1  0
 14 15  1  0
 15 16  2  0
 16 17  1  0
 17 18  2  0
 18 19  1  0
 19 20  2  0
 20 21  1  0
 21 22  2  0
 22 23  1  0
 23 24  1  0
 24 25  1  0
 25 26  1  0
 24 27  1  0
  7  3  2  0
 22 13  1  0
 23  5  1  0
 21 16  1  0
 27 20  1  0
  1 28  1  0
  1 29  1  0
  1 30  1  0
  2 31  1  0
  2 32  1  0
 10 33  1  0
 14 34  1  0
 14 35  1  0
 15 36  1  0
 17 37  1  0
 18 38  1  0
 19 39  1  0
 23 40  1  0
 24 41  1  0
 25 42  1  0
 25 43  1  0
 26 44  1  0
 26 45  1  0
 27 46  1  0
 27 47  1  0
M  END
>  <smiles>
CCc1sc2c(c1C(=O)O)C(=O)N1CC=c3cccc4c3=C1C2C(CN)C4

$$$$
