mol_de472432dd7e
     RDKit          3D

 43 45  0  0  0  0  0  0  0  0999 V2000
   -5.1784    0.2436   -0.4453 C   0  0  0  0  0  0  0  0  0  0  0  0
   -3.7020    0.2755   -0.1637 C   0  0  0  0  0  0  0  0  0  0  0  0
   -2.7213    0.4954   -1.0640 C   0  0  0  0  0  0  0  0  0  0  0  0
   -2.9363    0.7619   -2.3973 O   0  0  0  0  0  0  0  0  0  0  0  0
   -1.2649    0.5009   -0.6319 C   0  0  0  0  0  0  0  0  0  0  0  0
   -0.2672    0.1661   -1.7507 C   0  0  0  0  0  0  0  0  0  0  0  0
    1.1302    0.2065   -1.2932 N   0  0  0  0  0  0  0  0  0  0  0  0
    2.0986    0.5525   -2.2313 C   0  0  0  0  0  0  0  0  0  0  0  0
    1.8274    0.8750   -3.3881 O   0  0  0  0  0  0  0  0  0  0  0  0
    3.5335    0.6228   -1.7596 C   0  0  0  0  0  0  0  0  0  0  0  0
    3.8480   -0.3695   -0.6589 C   0  0  0  0  0  0  0  0  0  0  0  0
    5.2649   -0.1889   -0.1843 C   0  0  0  0  0  0  0  0  0  0  0  0
    6.1859   -0.9618   -0.3900 O   0  0  0  0  0  0  0  0  0  0  0  0
    5.4706    0.9502    0.5003 O   0  0  0  0  0  0  0  0  0  0  0  0
    2.8473   -0.1974    0.4734 C   0  0  0  0  0  0  0  0  0  0  0  0
    1.4442   -0.5032   -0.0492 C   0  0  0  0  0  0  0  0  0  0  0  0
    0.4156   -0.2250    1.0615 C   0  0  0  0  0  0  0  0  0  0  0  0
   -1.0214   -0.4573    0.5660 C   0  0  0  0  0  0  0  0  0  0  0  0
   -2.1125   -0.3104    1.6268 C   0  0  0  0  0  0  0  0  0  0  0  0
   -1.7586   -0.6320    3.0564 C   0  0  0  0  0  0  0  0  0  0  0  0
   -2.9089   -0.7223    3.8845 O   0  0  0  0  0  0  0  0  0  0  0  0
   -3.3496    0.0574    1.2346 C   0  0  0  0  0  0  0  0  0  0  0  0
   -5.6250   -0.6717   -0.0399 H   0  0  0  0  0  0  0  0  0  0  0  0
   -5.4165    0.2597   -1.5116 H   0  0  0  0  0  0  0  0  0  0  0  0
   -5.6735    1.1027    0.0202 H   0  0  0  0  0  0  0  0  0  0  0  0
   -3.8829    0.8956   -2.5611 H   0  0  0  0  0  0  0  0  0  0  0  0
   -1.0484    1.5306   -0.3064 H   0  0  0  0  0  0  0  0  0  0  0  0
   -0.4463   -0.8413   -2.1478 H   0  0  0  0  0  0  0  0  0  0  0  0
   -0.3935    0.8667   -2.5841 H   0  0  0  0  0  0  0  0  0  0  0  0
    3.7168    1.6538   -1.4319 H   0  0  0  0  0  0  0  0  0  0  0  0
    4.1880    0.4383   -2.6203 H   0  0  0  0  0  0  0  0  0  0  0  0
    3.7683   -1.3929   -1.0495 H   0  0  0  0  0  0  0  0  0  0  0  0
    6.4280    0.9340    0.7137 H   0  0  0  0  0  0  0  0  0  0  0  0
    3.0958   -0.8639    1.3086 H   0  0  0  0  0  0  0  0  0  0  0  0
    2.8885    0.8275    0.8659 H   0  0  0  0  0  0  0  0  0  0  0  0
    1.3984   -1.5714   -0.3038 H   0  0  0  0  0  0  0  0  0  0  0  0
    0.6424   -0.8792    1.9115 H   0  0  0  0  0  0  0  0  0  0  0  0
    0.5170    0.8089    1.4183 H   0  0  0  0  0  0  0  0  0  0  0  0
   -1.0828   -1.4989    0.2145 H   0  0  0  0  0  0  0  0  0  0  0  0
   -1.2377   -1.5930    3.1171 H   0  0  0  0  0  0  0  0  0  0  0  0
   -1.1087    0.1453    3.4695 H   0  0  0  0  0  0  0  0  0  0  0  0
   -3.4263   -1.4774    3.5567 H   0  0  0  0  0  0  0  0  0  0  0  0
   -4.1465    0.1863    1.9646 H   0  0  0  0  0  0  0  0  0  0  0  0
  1  2  1  0
  2  3  2  0
  3  4  1  0
  3  5  1  0
  5  6  1  0
  6  7  1  0
  7  8  1  0
  8  9  2  0
  8 10  1  0
 10 11  1  0
 11 12  1  0
 12 13  2  0
 12 14  1  0
 11 15  1  0
 15 16  1  0
 16 17  1  0
 17 18  1  0
 18 19  1  0
 19 20  1  0
 20 21  1  0
 19 22  2  0
 22  2  1  0
 18  5  1  0
 16  7  1  0
  1 23  1  0
  1 24  1  0
  1 25  1  0
  4 26  1  0
  5 27  1  0
  6 28  1  0
  6 29  1  0
 10 30  1  0
 10 31  1  0
 11 32  1  0
 14 33  1  0
 15 34  1  0
 15 35  1  0
 16 36  1  0
 17 37  1  0
 17 38  1  0
 18 39  1  0
 20 40  1  0
 20 41  1  0
 21 42  1  0
 22 43  1  0
M  END
>  <smiles>
CC1=C(O)C2CN3C(=O)CC(C(=O)O)CC3CC2C(CO)=C1

$$$$
