mol_f551992db996
     RDKit          3D

 61 63  0  0  0  0  0  0  0  0999 V2000
   -0.6580   -3.9572   -0.5044 C   0  0  0  0  0  0  0  0  0  0  0  0
   -0.2732   -3.1229   -1.6832 C   0  0  0  0  0  0  0  0  0  0  0  0
   -0.2798   -1.7818   -1.7599 C   0  0  0  0  0  0  0  0  0  0  0  0
   -0.6479   -0.8600   -0.6810 C   0  0  0  0  0  0  0  0  0  0  0  0
   -1.8794   -0.2700   -0.7079 C   0  0  0  0  0  0  0  0  0  0  0  0
   -2.8091   -0.4039   -1.8430 C   0  0  0  0  0  0  0  0  0  0  0  0
   -3.8461    0.4472   -2.0020 C   0  0  0  0  0  0  0  0  0  0  0  0
   -4.7797    0.2992   -3.1708 C   0  0  0  0  0  0  0  0  0  0  0  0
   -4.0524    1.5144   -0.9917 C   0  0  0  0  0  0  0  0  0  0  0  0
   -4.9054    2.5370   -1.2182 C   0  0  0  0  0  0  0  0  0  0  0  0
   -5.2350    3.6981   -0.3304 C   0  0  0  0  0  0  0  0  0  0  0  0
   -3.3641    1.3796    0.2983 C   0  0  0  0  0  0  0  0  0  0  0  0
   -2.3553    0.4985    0.4607 C   0  0  0  0  0  0  0  0  0  0  0  0
   -1.6960    0.2405    1.7996 C   0  0  0  0  0  0  0  0  0  0  0  0
   -2.3971   -0.8606    2.6259 C   0  0  0  0  0  0  0  0  0  0  0  0
   -3.8188   -0.5128    3.0475 C   0  0  0  0  0  0  0  0  0  0  0  0
   -0.2493   -0.1387    1.6278 C   0  0  0  0  0  0  0  0  0  0  0  0
    0.2535   -0.6054    0.4705 C   0  0  0  0  0  0  0  0  0  0  0  0
    1.6091   -0.8612    0.4376 N   0  0  0  0  0  0  0  0  0  0  0  0
    2.4700   -0.8860   -0.6494 C   0  0  0  0  0  0  0  0  0  0  0  0
    2.2425   -0.4565   -1.7780 O   0  0  0  0  0  0  0  0  0  0  0  0
    3.8703   -1.3668   -0.2601 C   0  0  0  0  0  0  0  0  0  0  0  0
    4.6586   -0.2462    0.2434 N   0  0  0  0  0  0  0  0  0  0  0  0
    5.2836    0.6598   -0.7058 C   0  0  0  0  0  0  0  0  0  0  0  0
    6.6346    1.1576   -0.1995 C   0  0  0  0  0  0  0  0  0  0  0  0
    6.6813    1.3429    1.3188 C   0  0  0  0  0  0  0  0  0  0  0  0
    5.2969    1.3761    1.9515 C   0  0  0  0  0  0  0  0  0  0  0  0
    4.5098    0.1419    1.5654 C   0  0  0  0  0  0  0  0  0  0  0  0
    3.7449   -0.4260    2.3432 O   0  0  0  0  0  0  0  0  0  0  0  0
   -1.0215   -3.3688    0.3419 H   0  0  0  0  0  0  0  0  0  0  0  0
    0.2038   -4.5415   -0.1677 H   0  0  0  0  0  0  0  0  0  0  0  0
   -1.4522   -4.6538   -0.7910 H   0  0  0  0  0  0  0  0  0  0  0  0
    0.0383   -3.6760   -2.5670 H   0  0  0  0  0  0  0  0  0  0  0  0
    0.0208   -1.2973   -2.6885 H   0  0  0  0  0  0  0  0  0  0  0  0
   -2.6388   -1.1946   -2.5659 H   0  0  0  0  0  0  0  0  0  0  0  0
   -5.8172    0.2113   -2.8310 H   0  0  0  0  0  0  0  0  0  0  0  0
   -4.6967    1.1565   -3.8470 H   0  0  0  0  0  0  0  0  0  0  0  0
   -4.5584   -0.5983   -3.7593 H   0  0  0  0  0  0  0  0  0  0  0  0
   -5.4296    2.5902   -2.1696 H   0  0  0  0  0  0  0  0  0  0  0  0
   -4.5574    3.8147    0.5177 H   0  0  0  0  0  0  0  0  0  0  0  0
   -5.1798    4.6246   -0.9118 H   0  0  0  0  0  0  0  0  0  0  0  0
   -6.2563    3.5973    0.0490 H   0  0  0  0  0  0  0  0  0  0  0  0
   -3.7239    1.9454    1.1495 H   0  0  0  0  0  0  0  0  0  0  0  0
   -1.7124    1.1747    2.3782 H   0  0  0  0  0  0  0  0  0  0  0  0
   -2.4173   -1.8061    2.0680 H   0  0  0  0  0  0  0  0  0  0  0  0
   -1.8156   -1.0522    3.5377 H   0  0  0  0  0  0  0  0  0  0  0  0
   -4.4954   -0.4726    2.1893 H   0  0  0  0  0  0  0  0  0  0  0  0
   -4.2031   -1.2772    3.7308 H   0  0  0  0  0  0  0  0  0  0  0  0
   -3.8515    0.4504    3.5662 H   0  0  0  0  0  0  0  0  0  0  0  0
    0.3914    0.0178    2.4916 H   0  0  0  0  0  0  0  0  0  0  0  0
    2.0857   -0.8741    1.3414 H   0  0  0  0  0  0  0  0  0  0  0  0
    4.3656   -1.8109   -1.1293 H   0  0  0  0  0  0  0  0  0  0  0  0
    3.7907   -2.1405    0.5122 H   0  0  0  0  0  0  0  0  0  0  0  0
    5.4117    0.1622   -1.6729 H   0  0  0  0  0  0  0  0  0  0  0  0
    4.6006    1.5058   -0.8489 H   0  0  0  0  0  0  0  0  0  0  0  0
    7.4185    0.4448   -0.4850 H   0  0  0  0  0  0  0  0  0  0  0  0
    6.8820    2.0987   -0.7047 H   0  0  0  0  0  0  0  0  0  0  0  0
    7.2353    2.2549    1.5678 H   0  0  0  0  0  0  0  0  0  0  0  0
    7.2473    0.5084    1.7533 H   0  0  0  0  0  0  0  0  0  0  0  0
    4.7380    2.2617    1.6299 H   0  0  0  0  0  0  0  0  0  0  0  0
    5.3890    1.4077    3.0423 H   0  0  0  0  0  0  0  0  0  0  0  0
  1  2  1  0
  2  3  2  3
  3  4  1  0
  4  5  2  0
  5  6  1  0
  6  7  2  0
  7  8  1  0
  7  9  1  0
  9 10  2  3
 10 11  1  0
  9 12  1  0
 12 13  2  0
 13 14  1  0
 14 15  1  0
 15 16  1  0
 14 17  1  0
 17 18  2  0
 18 19  1  0
 19 20  1  0
 20 21  2  0
 20 22  1  0
 22 23  1  0
 23 24  1  0
 24 25  1  0
 25 26  1  0
 26 27  1  0
 27 28  1  0
 28 29  2  0
 18  4  1  0
 28 23  1  0
 13  5  1  0
  1 30  1  0
  1 31  1  0
  1 32  1  0
  2 33  1  0
  3 34  1  0
  6 35  1  0
  8 36  1  0
  8 37  1  0
  8 38  1  0
 10 39  1  0
 11 40  1  0
 11 41  1  0
 11 42  1  0
 12 43  1  0
 14 44  1  0
 15 45  1  0
 15 46  1  0
 16 47  1  0
 16 48  1  0
 16 49  1  0
 17 50  1  0
 19 51  1  0
 22 52  1  0
 22 53  1  0
 24 54  1  0
 24 55  1  0
 25 56  1  0
 25 57  1  0
 26 58  1  0
 26 59  1  0
 27 60  1  0
 27 61  1  0
M  END
>  <smiles>
CC=CC1=c2cc(C)c(=CC)cc2C(CC)C=C1NC(=O)CN1CCCCC1=O

$$$$
