mol_e6f7292b2f61
     RDKit          3D

 50 52  0  0  0  0  0  0  0  0999 V2000
   -7.6537    0.0520    0.0925 C   0  0  0  0  0  0  0  0  0  0  0  0
   -6.9003   -1.2628   -0.0425 C   0  0  0  0  0  0  0  0  0  0  0  0
   -7.6022   -2.0797   -0.9900 O   0  0  0  0  0  0  0  0  0  0  0  0
   -5.4297   -1.1351   -0.5005 C   0  0  0  0  0  0  0  0  0  0  0  0
   -4.5395   -0.4162    0.4127 N   0  0  0  0  0  0  0  0  0  0  0  0
   -4.5256    1.0494    0.2235 C   0  0  0  0  0  0  0  0  0  0  0  0
   -3.1484    1.5128    0.7505 C   0  0  0  0  0  0  0  0  0  0  0  0
   -2.2737    0.3902    0.4395 N   0  0  0  0  0  0  0  0  0  0  0  0
   -0.9095    0.3837    0.5187 C   0  0  0  0  0  0  0  0  0  0  0  0
   -0.1505   -0.7425    0.1716 C   0  0  0  0  0  0  0  0  0  0  0  0
    1.2511   -0.7511    0.2461 C   0  0  0  0  0  0  0  0  0  0  0  0
    1.9583    0.3766    0.6751 C   0  0  0  0  0  0  0  0  0  0  0  0
    3.4268    0.3740    0.7545 C   0  0  0  0  0  0  0  0  0  0  0  0
    4.0853    0.6918    1.9500 C   0  0  0  0  0  0  0  0  0  0  0  0
    5.4784    0.6879    2.0190 C   0  0  0  0  0  0  0  0  0  0  0  0
    6.2394    0.3682    0.8925 C   0  0  0  0  0  0  0  0  0  0  0  0
    5.6137    0.0498   -0.3114 C   0  0  0  0  0  0  0  0  0  0  0  0
    6.3014   -0.2799   -1.4965 N   0  0  0  0  0  0  0  0  0  0  0  0
    7.6819   -0.3535   -1.6985 C   0  0  0  0  0  0  0  0  0  0  0  0
    8.5395   -0.1352   -0.8435 O   0  0  0  0  0  0  0  0  0  0  0  0
    8.0424   -0.7480   -3.1453 C   0  0  0  0  0  0  0  0  0  0  0  0
    8.7748    0.2037   -3.7843 F   0  0  0  0  0  0  0  0  0  0  0  0
    6.9230   -0.9410   -3.9078 F   0  0  0  0  0  0  0  0  0  0  0  0
    8.7508   -1.9072   -3.2146 F   0  0  0  0  0  0  0  0  0  0  0  0
    4.2115    0.0544   -0.3690 C   0  0  0  0  0  0  0  0  0  0  0  0
    1.2142    1.5075    1.0254 C   0  0  0  0  0  0  0  0  0  0  0  0
   -0.1869    1.5063    0.9452 C   0  0  0  0  0  0  0  0  0  0  0  0
   -3.1239   -0.7579    0.1718 C   0  0  0  0  0  0  0  0  0  0  0  0
   -7.3120    0.6258    0.9569 H   0  0  0  0  0  0  0  0  0  0  0  0
   -8.7266   -0.1330    0.2169 H   0  0  0  0  0  0  0  0  0  0  0  0
   -7.5421    0.6639   -0.8090 H   0  0  0  0  0  0  0  0  0  0  0  0
   -6.9366   -1.7955    0.9145 H   0  0  0  0  0  0  0  0  0  0  0  0
   -7.6885   -1.5727   -1.8154 H   0  0  0  0  0  0  0  0  0  0  0  0
   -5.0662   -2.1678   -0.6065 H   0  0  0  0  0  0  0  0  0  0  0  0
   -5.3875   -0.7224   -1.5179 H   0  0  0  0  0  0  0  0  0  0  0  0
   -5.3275    1.5532    0.7679 H   0  0  0  0  0  0  0  0  0  0  0  0
   -4.6038    1.3133   -0.8394 H   0  0  0  0  0  0  0  0  0  0  0  0
   -2.8449    2.4354    0.2448 H   0  0  0  0  0  0  0  0  0  0  0  0
   -3.1833    1.6762    1.8337 H   0  0  0  0  0  0  0  0  0  0  0  0
   -0.6376   -1.6516   -0.1698 H   0  0  0  0  0  0  0  0  0  0  0  0
    1.7821   -1.6613   -0.0243 H   0  0  0  0  0  0  0  0  0  0  0  0
    3.5132    0.9340    2.8437 H   0  0  0  0  0  0  0  0  0  0  0  0
    5.9761    0.9323    2.9544 H   0  0  0  0  0  0  0  0  0  0  0  0
    7.3197    0.3791    0.9956 H   0  0  0  0  0  0  0  0  0  0  0  0
    5.7244   -0.4892   -2.3080 H   0  0  0  0  0  0  0  0  0  0  0  0
    3.7062   -0.1811   -1.3038 H   0  0  0  0  0  0  0  0  0  0  0  0
    1.7172    2.4130    1.3585 H   0  0  0  0  0  0  0  0  0  0  0  0
   -0.7049    2.4161    1.2350 H   0  0  0  0  0  0  0  0  0  0  0  0
   -2.9648   -1.0651   -0.8707 H   0  0  0  0  0  0  0  0  0  0  0  0
   -2.8610   -1.6008    0.8218 H   0  0  0  0  0  0  0  0  0  0  0  0
  1  2  1  0
  2  3  1  0
  2  4  1  0
  4  5  1  0
  5  6  1  0
  6  7  1  0
  7  8  1  0
  8  9  1  0
  9 10  1  0
 10 11  2  0
 11 12  1  0
 12 13  1  0
 13 14  1  0
 14 15  2  0
 15 16  1  0
 16 17  2  0
 17 18  1  0
 18 19  1  0
 19 20  2  0
 19 21  1  0
 21 22  1  0
 21 23  1  0
 21 24  1  0
 17 25  1  0
 12 26  2  0
 26 27  1  0
  8 28  1  0
 28  5  1  0
 27  9  2  0
 25 13  2  0
  1 29  1  0
  1 30  1  0
  1 31  1  0
  2 32  1  0
  3 33  1  0
  4 34  1  0
  4 35  1  0
  6 36  1  0
  6 37  1  0
  7 38  1  0
  7 39  1  0
 10 40  1  0
 11 41  1  0
 14 42  1  0
 15 43  1  0
 16 44  1  0
 18 45  1  0
 25 46  1  0
 26 47  1  0
 27 48  1  0
 28 49  1  0
 28 50  1  0
M  END
>  <smiles>
CC(O)CN1CCN(c2ccc(-c3cccc(NC(=O)C(F)(F)F)c3)cc2)C1

$$$$
