mol_ac472451edf8
     RDKit          3D

 70 72  0  0  0  0  0  0  0  0999 V2000
   -2.5477   -1.4690    2.1795 C   0  0  0  0  0  0  0  0  0  0  0  0
   -2.7459   -1.0162    0.7734 C   0  0  0  0  0  0  0  0  0  0  0  0
   -1.7294   -0.5425   -0.1100 C   0  0  0  0  0  0  0  0  0  0  0  0
   -0.2675   -0.4068    0.2115 C   0  0  0  0  0  0  0  0  0  0  0  0
    0.0950    1.0089    0.6684 C   0  0  0  0  0  0  0  0  0  0  0  0
    1.4865    1.1232    1.0663 N   0  0  0  0  0  0  0  0  0  0  0  0
    2.5008    1.2363    0.1408 C   0  0  0  0  0  0  0  0  0  0  0  0
    2.3060    1.2367   -1.0705 O   0  0  0  0  0  0  0  0  0  0  0  0
    3.8845    1.3743    0.7615 C   0  0  0  0  0  0  0  0  0  0  0  0
    4.0506    2.7858    1.3263 C   0  0  0  0  0  0  0  0  0  0  0  0
    4.9619    1.0558   -0.2812 C   0  0  0  0  0  0  0  0  0  0  0  0
    6.2929    0.6885    0.3428 C   0  0  0  0  0  0  0  0  0  0  0  0
    6.4676    0.5748    1.5506 O   0  0  0  0  0  0  0  0  0  0  0  0
    7.2804    0.4818   -0.5960 N   0  0  0  0  0  0  0  0  0  0  0  0
    8.6355    0.1123   -0.2383 C   0  0  0  0  0  0  0  0  0  0  0  0
    8.9271   -1.3884   -0.4019 C   0  0  0  0  0  0  0  0  0  0  0  0
    8.0909   -2.2496    0.5448 C   0  0  0  0  0  0  0  0  0  0  0  0
    8.7447   -1.8513   -1.8482 C   0  0  0  0  0  0  0  0  0  0  0  0
   -2.3428   -0.2197   -1.3141 C   0  0  0  0  0  0  0  0  0  0  0  0
   -1.7297    0.3322   -2.5605 C   0  0  0  0  0  0  0  0  0  0  0  0
   -3.7004   -0.5090   -1.2156 N   0  0  0  0  0  0  0  0  0  0  0  0
   -3.9404   -0.9548    0.0780 C   0  0  0  0  0  0  0  0  0  0  0  0
   -5.3351   -1.2776    0.5205 C   0  0  0  0  0  0  0  0  0  0  0  0
   -6.3798   -0.6467   -0.3813 C   0  0  0  0  0  0  0  0  0  0  0  0
   -7.4284    0.0878    0.0725 C   0  0  0  0  0  0  0  0  0  0  0  0
   -8.4051    0.7169   -0.8165 C   0  0  0  0  0  0  0  0  0  0  0  0
   -9.4732    1.3948   -0.3700 C   0  0  0  0  0  0  0  0  0  0  0  0
   -9.7483    1.5547    1.0319 C   0  0  0  0  0  0  0  0  0  0  0  0
   -8.9066    1.0532    1.9431 C   0  0  0  0  0  0  0  0  0  0  0  0
   -7.6544    0.3056    1.5728 C   0  0  0  0  0  0  0  0  0  0  0  0
   -6.0432   -0.9429   -1.8269 C   0  0  0  0  0  0  0  0  0  0  0  0
   -4.6903   -0.3839   -2.2172 C   0  0  0  0  0  0  0  0  0  0  0  0
   -4.4157    0.0570   -3.3272 O   0  0  0  0  0  0  0  0  0  0  0  0
   -3.4796   -1.8219    2.6307 H   0  0  0  0  0  0  0  0  0  0  0  0
   -2.1653   -0.6466    2.7924 H   0  0  0  0  0  0  0  0  0  0  0  0
   -1.8286   -2.2936    2.2162 H   0  0  0  0  0  0  0  0  0  0  0  0
    0.3307   -0.6902   -0.6629 H   0  0  0  0  0  0  0  0  0  0  0  0
    0.0072   -1.1235    0.9956 H   0  0  0  0  0  0  0  0  0  0  0  0
   -0.5080    1.3002    1.5358 H   0  0  0  0  0  0  0  0  0  0  0  0
   -0.1003    1.7346   -0.1297 H   0  0  0  0  0  0  0  0  0  0  0  0
    1.7105    1.1259    2.0533 H   0  0  0  0  0  0  0  0  0  0  0  0
    3.9446    0.6531    1.5869 H   0  0  0  0  0  0  0  0  0  0  0  0
    3.9272    3.5416    0.5425 H   0  0  0  0  0  0  0  0  0  0  0  0
    3.3020    2.9932    2.0985 H   0  0  0  0  0  0  0  0  0  0  0  0
    5.0384    2.9210    1.7775 H   0  0  0  0  0  0  0  0  0  0  0  0
    4.6574    0.1954   -0.8916 H   0  0  0  0  0  0  0  0  0  0  0  0
    5.1075    1.9027   -0.9631 H   0  0  0  0  0  0  0  0  0  0  0  0
    7.0553    0.5926   -1.5768 H   0  0  0  0  0  0  0  0  0  0  0  0
    8.8401    0.4230    0.7924 H   0  0  0  0  0  0  0  0  0  0  0  0
    9.2986    0.6915   -0.8908 H   0  0  0  0  0  0  0  0  0  0  0  0
    9.9820   -1.5408   -0.1382 H   0  0  0  0  0  0  0  0  0  0  0  0
    7.0247   -2.2047    0.2999 H   0  0  0  0  0  0  0  0  0  0  0  0
    8.2185   -1.9242    1.5825 H   0  0  0  0  0  0  0  0  0  0  0  0
    8.4008   -3.2985    0.4847 H   0  0  0  0  0  0  0  0  0  0  0  0
    9.3528   -1.2470   -2.5296 H   0  0  0  0  0  0  0  0  0  0  0  0
    7.7000   -1.7789   -2.1682 H   0  0  0  0  0  0  0  0  0  0  0  0
    9.0562   -2.8954   -1.9605 H   0  0  0  0  0  0  0  0  0  0  0  0
   -1.8394   -0.3726   -3.3907 H   0  0  0  0  0  0  0  0  0  0  0  0
   -0.6596    0.5203   -2.4324 H   0  0  0  0  0  0  0  0  0  0  0  0
   -2.1935    1.2860   -2.8310 H   0  0  0  0  0  0  0  0  0  0  0  0
   -5.4659   -2.3673    0.5038 H   0  0  0  0  0  0  0  0  0  0  0  0
   -5.4486   -0.9653    1.5625 H   0  0  0  0  0  0  0  0  0  0  0  0
   -8.2802    0.6504   -1.8911 H   0  0  0  0  0  0  0  0  0  0  0  0
  -10.1690    1.8464   -1.0715 H   0  0  0  0  0  0  0  0  0  0  0  0
  -10.6436    2.0933    1.3257 H   0  0  0  0  0  0  0  0  0  0  0  0
   -9.1155    1.1845    3.0005 H   0  0  0  0  0  0  0  0  0  0  0  0
   -7.6978   -0.6698    2.0736 H   0  0  0  0  0  0  0  0  0  0  0  0
   -6.8048    0.8645    1.9846 H   0  0  0  0  0  0  0  0  0  0  0  0
   -6.0222   -2.0282   -1.9875 H   0  0  0  0  0  0  0  0  0  0  0  0
   -6.7731   -0.5437   -2.5334 H   0  0  0  0  0  0  0  0  0  0  0  0
  1  2  1  0
  2  3  1  0
  3  4  1  0
  4  5  1  0
  5  6  1  0
  6  7  1  0
  7  8  2  0
  7  9  1  0
  9 10  1  0
  9 11  1  0
 11 12  1  0
 12 13  2  0
 12 14  1  0
 14 15  1  0
 15 16  1  0
 16 17  1  0
 16 18  1  0
  3 19  2  0
 19 20  1  0
 19 21  1  0
 21 22  1  0
 22 23  1  0
 23 24  1  0
 24 25  2  3
 25 26  1  0
 26 27  2  0
 27 28  1  0
 28 29  2  0
 29 30  1  0
 24 31  1  0
 31 32  1  0
 32 33  2  0
 22  2  2  0
 30 25  1  0
 32 21  1  0
  1 34  1  0
  1 35  1  0
  1 36  1  0
  4 37  1  0
  4 38  1  0
  5 39  1  0
  5 40  1  0
  6 41  1  0
  9 42  1  0
 10 43  1  0
 10 44  1  0
 10 45  1  0
 11 46  1  0
 11 47  1  0
 14 48  1  0
 15 49  1  0
 15 50  1  0
 16 51  1  0
 17 52  1  0
 17 53  1  0
 17 54  1  0
 18 55  1  0
 18 56  1  0
 18 57  1  0
 20 58  1  0
 20 59  1  0
 20 60  1  0
 23 61  1  0
 23 62  1  0
 26 63  1  0
 27 64  1  0
 28 65  1  0
 29 66  1  0
 30 67  1  0
 30 68  1  0
 31 69  1  0
 31 70  1  0
M  END
>  <smiles>
Cc1c(CCNC(=O)C(C)CC(=O)NCC(C)C)c(C)n2c1CC(=C1C=CC=CC1)CC2=O

$$$$
