mol_6d696908d8c9
     RDKit          3D

 47 49  0  0  0  0  0  0  0  0999 V2000
   -7.5038   -2.1491    0.9642 N   0  0  0  0  0  0  0  0  0  0  0  0
   -6.2688   -1.6144    1.2034 C   0  0  0  0  0  0  0  0  0  0  0  0
   -5.2083   -2.3171    0.7924 N   0  0  0  0  0  0  0  0  0  0  0  0
   -4.0040   -1.7593    1.0438 C   0  0  0  0  0  0  0  0  0  0  0  0
   -3.8515   -0.5504    1.6887 C   0  0  0  0  0  0  0  0  0  0  0  0
   -2.5119    0.0697    1.9541 C   0  0  0  0  0  0  0  0  0  0  0  0
   -2.0758    1.0095    0.8667 C   0  0  0  0  0  0  0  0  0  0  0  0
   -2.2227    2.3367    0.9201 C   0  0  0  0  0  0  0  0  0  0  0  0
   -1.7882    3.1354   -0.0925 N   0  0  0  0  0  0  0  0  0  0  0  0
   -1.1542    2.6825   -1.2186 C   0  0  0  0  0  0  0  0  0  0  0  0
   -0.8085    3.4866   -2.0822 O   0  0  0  0  0  0  0  0  0  0  0  0
   -0.9578    1.3141   -1.2890 N   0  0  0  0  0  0  0  0  0  0  0  0
   -0.2527    0.7829   -2.4447 C   0  0  0  0  0  0  0  0  0  0  0  0
    1.2440    0.7418   -2.2191 C   0  0  0  0  0  0  0  0  0  0  0  0
    2.0536    1.8179   -2.6002 C   0  0  0  0  0  0  0  0  0  0  0  0
    3.4277    1.7821   -2.3659 C   0  0  0  0  0  0  0  0  0  0  0  0
    4.0095    0.6762   -1.7400 C   0  0  0  0  0  0  0  0  0  0  0  0
    3.2171   -0.3990   -1.3421 C   0  0  0  0  0  0  0  0  0  0  0  0
    3.6425   -1.5333   -0.7105 O   0  0  0  0  0  0  0  0  0  0  0  0
    5.0079   -1.6457   -0.3222 C   0  0  0  0  0  0  0  0  0  0  0  0
    5.2938   -0.9378    0.9935 C   0  0  0  0  0  0  0  0  0  0  0  0
    4.5439   -1.5643    2.1444 C   0  0  0  0  0  0  0  0  0  0  0  0
    4.8473   -2.8744    2.2714 F   0  0  0  0  0  0  0  0  0  0  0  0
    3.2076   -1.4493    2.0240 F   0  0  0  0  0  0  0  0  0  0  0  0
    4.8956   -0.9589    3.3042 F   0  0  0  0  0  0  0  0  0  0  0  0
    1.8405   -0.3599   -1.5868 C   0  0  0  0  0  0  0  0  0  0  0  0
   -1.4099    0.4252   -0.3284 C   0  0  0  0  0  0  0  0  0  0  0  0
   -1.3002   -0.7977   -0.4098 O   0  0  0  0  0  0  0  0  0  0  0  0
   -4.9502    0.1227    2.0790 N   0  0  0  0  0  0  0  0  0  0  0  0
   -6.1761   -0.4240    1.8310 N   0  0  0  0  0  0  0  0  0  0  0  0
   -7.5416   -3.0363    0.4933 H   0  0  0  0  0  0  0  0  0  0  0  0
   -8.3167   -1.6401    1.2629 H   0  0  0  0  0  0  0  0  0  0  0  0
   -3.1487   -2.3320    0.6977 H   0  0  0  0  0  0  0  0  0  0  0  0
   -1.7584   -0.7103    2.1208 H   0  0  0  0  0  0  0  0  0  0  0  0
   -2.5695    0.6107    2.9085 H   0  0  0  0  0  0  0  0  0  0  0  0
   -2.7002    2.8381    1.7574 H   0  0  0  0  0  0  0  0  0  0  0  0
   -1.9230    4.1396   -0.0483 H   0  0  0  0  0  0  0  0  0  0  0  0
   -0.6116   -0.2273   -2.6770 H   0  0  0  0  0  0  0  0  0  0  0  0
   -0.4724    1.3931   -3.3297 H   0  0  0  0  0  0  0  0  0  0  0  0
    1.6165    2.6940   -3.0775 H   0  0  0  0  0  0  0  0  0  0  0  0
    4.0475    2.6225   -2.6692 H   0  0  0  0  0  0  0  0  0  0  0  0
    5.0811    0.6958   -1.5792 H   0  0  0  0  0  0  0  0  0  0  0  0
    5.2124   -2.7170   -0.2086 H   0  0  0  0  0  0  0  0  0  0  0  0
    5.6817   -1.3093   -1.1182 H   0  0  0  0  0  0  0  0  0  0  0  0
    5.0214    0.1207    0.9343 H   0  0  0  0  0  0  0  0  0  0  0  0
    6.3687   -0.9890    1.1993 H   0  0  0  0  0  0  0  0  0  0  0  0
    1.2265   -1.2022   -1.2695 H   0  0  0  0  0  0  0  0  0  0  0  0
  1  2  1  0
  2  3  2  0
  3  4  1  0
  4  5  2  0
  5  6  1  0
  6  7  1  0
  7  8  2  0
  8  9  1  0
  9 10  1  0
 10 11  2  0
 10 12  1  0
 12 13  1  0
 13 14  1  0
 14 15  2  0
 15 16  1  0
 16 17  2  0
 17 18  1  0
 18 19  1  0
 19 20  1  0
 20 21  1  0
 21 22  1  0
 22 23  1  0
 22 24  1  0
 22 25  1  0
 18 26  2  0
 12 27  1  0
 27 28  2  0
  5 29  1  0
 29 30  2  0
 30  2  1  0
 27  7  1  0
 26 14  1  0
  1 31  1  0
  1 32  1  0
  4 33  1  0
  6 34  1  0
  6 35  1  0
  8 36  1  0
  9 37  1  0
 13 38  1  0
 13 39  1  0
 15 40  1  0
 16 41  1  0
 17 42  1  0
 20 43  1  0
 20 44  1  0
 21 45  1  0
 21 46  1  0
 26 47  1  0
M  END
>  <smiles>
Nc1ncc(Cc2c[nH]c(=O)n(Cc3cccc(OCCC(F)(F)F)c3)c2=O)nn1

$$$$
