mol_9792196da520
     RDKit          3D

 50 52  0  0  0  0  0  0  0  0999 V2000
   -0.9411    3.8694   -0.9895 O   0  0  0  0  0  0  0  0  0  0  0  0
   -0.3077    2.9217   -0.5481 C   0  0  0  0  0  0  0  0  0  0  0  0
    1.0406    2.9693   -0.5256 O   0  0  0  0  0  0  0  0  0  0  0  0
   -0.8886    1.7036   -0.0315 C   0  0  0  0  0  0  0  0  0  0  0  0
   -2.2449    1.4395    0.0119 C   0  0  0  0  0  0  0  0  0  0  0  0
   -2.4198    0.1912    0.5716 N   0  0  0  0  0  0  0  0  0  0  0  0
   -3.6119   -0.5255    0.8383 C   0  0  0  0  0  0  0  0  0  0  0  0
   -3.5660   -1.6355    1.3588 O   0  0  0  0  0  0  0  0  0  0  0  0
   -4.8959    0.1840    0.4323 C   0  0  0  0  0  0  0  0  0  0  0  0
   -5.1709    0.0536   -1.0636 C   0  0  0  0  0  0  0  0  0  0  0  0
   -5.8139   -1.3191   -1.2080 C   0  0  0  0  0  0  0  0  0  0  0  0
   -6.5971   -1.5412    0.0812 C   0  0  0  0  0  0  0  0  0  0  0  0
   -6.1335   -0.4642    1.0620 C   0  0  0  0  0  0  0  0  0  0  0  0
   -1.2176   -0.3589    0.8872 N   0  0  0  0  0  0  0  0  0  0  0  0
   -0.2970    0.5415    0.5262 C   0  0  0  0  0  0  0  0  0  0  0  0
    1.1495    0.2317    0.7565 C   0  0  0  0  0  0  0  0  0  0  0  0
    1.8472   -0.2733   -0.5094 C   0  0  0  0  0  0  0  0  0  0  0  0
    3.2907   -0.4727   -0.3176 N   0  0  0  0  0  0  0  0  0  0  0  0
    4.1525    0.7055   -0.3621 C   0  0  0  0  0  0  0  0  0  0  0  0
    4.7501    1.0580    0.9974 C   0  0  0  0  0  0  0  0  0  0  0  0
    5.9678    0.2126    1.3633 C   0  0  0  0  0  0  0  0  0  0  0  0
    5.6846   -1.2829    1.4748 C   0  0  0  0  0  0  0  0  0  0  0  0
    5.2481   -1.9152    0.1589 C   0  0  0  0  0  0  0  0  0  0  0  0
    3.7608   -1.7555   -0.0808 C   0  0  0  0  0  0  0  0  0  0  0  0
    3.0249   -2.7416   -0.0557 O   0  0  0  0  0  0  0  0  0  0  0  0
    1.2306    3.8543   -0.9024 H   0  0  0  0  0  0  0  0  0  0  0  0
   -3.0780    2.0464   -0.3123 H   0  0  0  0  0  0  0  0  0  0  0  0
   -4.8465    1.2275    0.7603 H   0  0  0  0  0  0  0  0  0  0  0  0
   -4.2784    0.1388   -1.6903 H   0  0  0  0  0  0  0  0  0  0  0  0
   -5.8807    0.8281   -1.3787 H   0  0  0  0  0  0  0  0  0  0  0  0
   -5.0387   -2.0884   -1.3068 H   0  0  0  0  0  0  0  0  0  0  0  0
   -6.4527   -1.3812   -2.0943 H   0  0  0  0  0  0  0  0  0  0  0  0
   -6.4064   -2.5449    0.4764 H   0  0  0  0  0  0  0  0  0  0  0  0
   -7.6756   -1.4594   -0.0927 H   0  0  0  0  0  0  0  0  0  0  0  0
   -5.9510   -0.8769    2.0595 H   0  0  0  0  0  0  0  0  0  0  0  0
   -6.9261    0.2879    1.1635 H   0  0  0  0  0  0  0  0  0  0  0  0
    1.6511    1.1262    1.1425 H   0  0  0  0  0  0  0  0  0  0  0  0
    1.2493   -0.5226    1.5482 H   0  0  0  0  0  0  0  0  0  0  0  0
    1.7135    0.4221   -1.3466 H   0  0  0  0  0  0  0  0  0  0  0  0
    1.3822   -1.2152   -0.8245 H   0  0  0  0  0  0  0  0  0  0  0  0
    4.9417    0.5351   -1.1027 H   0  0  0  0  0  0  0  0  0  0  0  0
    3.5608    1.5543   -0.7227 H   0  0  0  0  0  0  0  0  0  0  0  0
    5.0716    2.1065    0.9710 H   0  0  0  0  0  0  0  0  0  0  0  0
    3.9932    0.9782    1.7861 H   0  0  0  0  0  0  0  0  0  0  0  0
    6.3577    0.5656    2.3260 H   0  0  0  0  0  0  0  0  0  0  0  0
    6.7645    0.3805    0.6278 H   0  0  0  0  0  0  0  0  0  0  0  0
    6.6085   -1.7739    1.8045 H   0  0  0  0  0  0  0  0  0  0  0  0
    4.9348   -1.4607    2.2554 H   0  0  0  0  0  0  0  0  0  0  0  0
    5.4494   -2.9930    0.2043 H   0  0  0  0  0  0  0  0  0  0  0  0
    5.8144   -1.5309   -0.6955 H   0  0  0  0  0  0  0  0  0  0  0  0
  1  2  2  0
  2  3  1  0
  2  4  1  0
  4  5  2  0
  5  6  1  0
  6  7  1  0
  7  8  2  0
  7  9  1  0
  9 10  1  0
 10 11  1  0
 11 12  1  0
 12 13  1  0
  6 14  1  0
 14 15  2  0
 15 16  1  0
 16 17  1  0
 17 18  1  0
 18 19  1  0
 19 20  1  0
 20 21  1  0
 21 22  1  0
 22 23  1  0
 23 24  1  0
 24 25  2  0
 15  4  1  0
 24 18  1  0
 13  9  1  0
  3 26  1  0
  5 27  1  0
  9 28  1  0
 10 29  1  0
 10 30  1  0
 11 31  1  0
 11 32  1  0
 12 33  1  0
 12 34  1  0
 13 35  1  0
 13 36  1  0
 16 37  1  0
 16 38  1  0
 17 39  1  0
 17 40  1  0
 19 41  1  0
 19 42  1  0
 20 43  1  0
 20 44  1  0
 21 45  1  0
 21 46  1  0
 22 47  1  0
 22 48  1  0
 23 49  1  0
 23 50  1  0
M  END
>  <smiles>
O=C(O)c1cn(C(=O)C2CCCC2)nc1CCN1CCCCCC1=O

$$$$
