mol_9b76d73bdb11
     RDKit          3D

 58 59  0  0  0  0  0  0  0  0999 V2000
    5.4377    2.8095   -2.2997 C   0  0  0  0  0  0  0  0  0  0  0  0
    4.3409    3.1584   -1.3032 C   0  0  0  0  0  0  0  0  0  0  0  0
    3.4202    1.9746   -1.0065 C   0  0  0  0  0  0  0  0  0  0  0  0
    4.0621    0.9029   -0.1339 C   0  0  0  0  0  0  0  0  0  0  0  0
    5.1309    1.1001    0.4452 O   0  0  0  0  0  0  0  0  0  0  0  0
    3.3734   -0.2991   -0.0132 N   0  0  0  0  0  0  0  0  0  0  0  0
    3.9994   -1.3832    0.7427 C   0  0  0  0  0  0  0  0  0  0  0  0
    3.5215   -2.7541    0.2792 C   0  0  0  0  0  0  0  0  0  0  0  0
    2.0050   -2.9119    0.4099 C   0  0  0  0  0  0  0  0  0  0  0  0
    1.2501   -1.5789    0.2402 C   0  0  0  0  0  0  0  0  0  0  0  0
   -0.1733   -1.7699   -0.2561 C   0  0  0  0  0  0  0  0  0  0  0  0
   -1.2415   -1.4649    0.6075 C   0  0  0  0  0  0  0  0  0  0  0  0
   -2.5783   -1.5913    0.1989 C   0  0  0  0  0  0  0  0  0  0  0  0
   -3.6992   -1.2556    1.1558 C   0  0  0  0  0  0  0  0  0  0  0  0
   -4.7041   -0.2066    0.6544 C   0  0  0  0  0  0  0  0  0  0  0  0
   -4.2424    1.1848    0.7703 N   0  0  0  0  0  0  0  0  0  0  0  0
   -3.4891    1.7504   -0.3520 C   0  0  0  0  0  0  0  0  0  0  0  0
   -2.0557    2.1227    0.0020 C   0  0  0  0  0  0  0  0  0  0  0  0
   -4.5757    2.0312    1.8240 C   0  0  0  0  0  0  0  0  0  0  0  0
   -5.3130    1.4321    2.9958 C   0  0  0  0  0  0  0  0  0  0  0  0
   -4.3002    3.2317    1.8258 O   0  0  0  0  0  0  0  0  0  0  0  0
   -2.8453   -2.0757   -1.0866 C   0  0  0  0  0  0  0  0  0  0  0  0
   -1.8005   -2.3914   -1.9554 C   0  0  0  0  0  0  0  0  0  0  0  0
   -0.4790   -2.2335   -1.5404 C   0  0  0  0  0  0  0  0  0  0  0  0
    0.5382   -2.5416   -2.3982 O   0  0  0  0  0  0  0  0  0  0  0  0
    2.0511   -0.5662   -0.5977 C   0  0  0  0  0  0  0  0  0  0  0  0
    5.0106    2.4636   -3.2465 H   0  0  0  0  0  0  0  0  0  0  0  0
    6.0971    2.0259   -1.9149 H   0  0  0  0  0  0  0  0  0  0  0  0
    6.0507    3.6920   -2.5086 H   0  0  0  0  0  0  0  0  0  0  0  0
    3.7397    3.9735   -1.7233 H   0  0  0  0  0  0  0  0  0  0  0  0
    4.7927    3.5384   -0.3798 H   0  0  0  0  0  0  0  0  0  0  0  0
    3.0813    1.5296   -1.9483 H   0  0  0  0  0  0  0  0  0  0  0  0
    2.5426    2.3486   -0.4661 H   0  0  0  0  0  0  0  0  0  0  0  0
    5.0892   -1.3205    0.6487 H   0  0  0  0  0  0  0  0  0  0  0  0
    3.7532   -1.2273    1.7998 H   0  0  0  0  0  0  0  0  0  0  0  0
    3.8023   -2.8928   -0.7729 H   0  0  0  0  0  0  0  0  0  0  0  0
    4.0252   -3.5445    0.8467 H   0  0  0  0  0  0  0  0  0  0  0  0
    1.7663   -3.3205    1.4009 H   0  0  0  0  0  0  0  0  0  0  0  0
    1.6736   -3.6737   -0.3052 H   0  0  0  0  0  0  0  0  0  0  0  0
    1.1886   -1.1400    1.2479 H   0  0  0  0  0  0  0  0  0  0  0  0
   -1.0280   -1.1058    1.6139 H   0  0  0  0  0  0  0  0  0  0  0  0
   -4.2391   -2.1915    1.3510 H   0  0  0  0  0  0  0  0  0  0  0  0
   -3.2871   -0.9347    2.1202 H   0  0  0  0  0  0  0  0  0  0  0  0
   -5.0062   -0.3850   -0.3837 H   0  0  0  0  0  0  0  0  0  0  0  0
   -5.6196   -0.3164    1.2441 H   0  0  0  0  0  0  0  0  0  0  0  0
   -4.0183    2.6470   -0.6961 H   0  0  0  0  0  0  0  0  0  0  0  0
   -3.4865    1.0389   -1.1843 H   0  0  0  0  0  0  0  0  0  0  0  0
   -2.0175    2.9400    0.7281 H   0  0  0  0  0  0  0  0  0  0  0  0
   -1.5201    2.4509   -0.8944 H   0  0  0  0  0  0  0  0  0  0  0  0
   -1.5149    1.2793    0.4341 H   0  0  0  0  0  0  0  0  0  0  0  0
   -5.3025    2.1410    3.8294 H   0  0  0  0  0  0  0  0  0  0  0  0
   -6.3525    1.2371    2.7199 H   0  0  0  0  0  0  0  0  0  0  0  0
   -4.8306    0.5120    3.3331 H   0  0  0  0  0  0  0  0  0  0  0  0
   -3.8693   -2.2174   -1.4241 H   0  0  0  0  0  0  0  0  0  0  0  0
   -2.0367   -2.7600   -2.9492 H   0  0  0  0  0  0  0  0  0  0  0  0
    0.1615   -2.9035   -3.2174 H   0  0  0  0  0  0  0  0  0  0  0  0
    1.4859    0.3671   -0.6828 H   0  0  0  0  0  0  0  0  0  0  0  0
    2.2347   -0.9257   -1.6157 H   0  0  0  0  0  0  0  0  0  0  0  0
  1  2  1  0
  2  3  1  0
  3  4  1  0
  4  5  2  0
  4  6  1  0
  6  7  1  0
  7  8  1  0
  8  9  1  0
  9 10  1  0
 10 11  1  0
 11 12  1  0
 12 13  2  0
 13 14  1  0
 14 15  1  0
 15 16  1  0
 16 17  1  0
 17 18  1  0
 16 19  1  0
 19 20  1  0
 19 21  2  0
 13 22  1  0
 22 23  2  0
 23 24  1  0
 24 25  1  0
 10 26  1  0
 26  6  1  0
 24 11  2  0
  1 27  1  0
  1 28  1  0
  1 29  1  0
  2 30  1  0
  2 31  1  0
  3 32  1  0
  3 33  1  0
  7 34  1  0
  7 35  1  0
  8 36  1  0
  8 37  1  0
  9 38  1  0
  9 39  1  0
 10 40  1  0
 12 41  1  0
 14 42  1  0
 14 43  1  0
 15 44  1  0
 15 45  1  0
 17 46  1  0
 17 47  1  0
 18 48  1  0
 18 49  1  0
 18 50  1  0
 20 51  1  0
 20 52  1  0
 20 53  1  0
 22 54  1  0
 23 55  1  0
 25 56  1  0
 26 57  1  0
 26 58  1  0
M  END
>  <smiles>
CCCC(=O)N1CCCC(c2cc(CCN(CC)C(C)=O)ccc2O)C1

$$$$
