mol_3fd04b2529df
     RDKit          3D

 47 48  0  0  0  0  0  0  0  0999 V2000
    7.7057    1.2101   -1.0319 C   0  0  0  0  0  0  0  0  0  0  0  0
    6.8150    0.1026   -1.0754 O   0  0  0  0  0  0  0  0  0  0  0  0
    5.5576    0.2998   -0.5736 C   0  0  0  0  0  0  0  0  0  0  0  0
    5.0659    1.4855   -0.0416 C   0  0  0  0  0  0  0  0  0  0  0  0
    3.7540    1.5427    0.4362 C   0  0  0  0  0  0  0  0  0  0  0  0
    2.9131    0.4194    0.3907 C   0  0  0  0  0  0  0  0  0  0  0  0
    1.5985    0.4996    0.8757 C   0  0  0  0  0  0  0  0  0  0  0  0
    0.7443   -0.6074    0.8438 C   0  0  0  0  0  0  0  0  0  0  0  0
   -0.6746   -0.4946    1.3446 C   0  0  0  0  0  0  0  0  0  0  0  0
   -1.6250   -0.0794    0.2257 C   0  0  0  0  0  0  0  0  0  0  0  0
   -3.0539    0.0423    0.7147 C   0  0  0  0  0  0  0  0  0  0  0  0
   -3.3861   -0.1621    1.8755 O   0  0  0  0  0  0  0  0  0  0  0  0
   -3.9250    0.4079   -0.2919 N   0  0  0  0  0  0  0  0  0  0  0  0
   -5.3730    0.6046   -0.1241 C   0  0  0  0  0  0  0  0  0  0  0  0
   -6.0546   -0.6945    0.3335 C   0  0  0  0  0  0  0  0  0  0  0  0
   -5.9610    1.0046   -1.4901 C   0  0  0  0  0  0  0  0  0  0  0  0
   -5.6617    1.7354    0.8758 C   0  0  0  0  0  0  0  0  0  0  0  0
    1.2155   -1.8100    0.3108 C   0  0  0  0  0  0  0  0  0  0  0  0
    2.5265   -1.9217   -0.1827 C   0  0  0  0  0  0  0  0  0  0  0  0
    2.9732   -3.2487   -0.7394 C   0  0  0  0  0  0  0  0  0  0  0  0
    3.3943   -0.7976   -0.1470 C   0  0  0  0  0  0  0  0  0  0  0  0
    4.7254   -0.8240   -0.6226 C   0  0  0  0  0  0  0  0  0  0  0  0
    8.6604    0.8882   -1.4588 H   0  0  0  0  0  0  0  0  0  0  0  0
    7.3324    2.0407   -1.6400 H   0  0  0  0  0  0  0  0  0  0  0  0
    7.8923    1.5269   -0.0004 H   0  0  0  0  0  0  0  0  0  0  0  0
    5.6707    2.3835    0.0190 H   0  0  0  0  0  0  0  0  0  0  0  0
    3.3915    2.4816    0.8499 H   0  0  0  0  0  0  0  0  0  0  0  0
    1.2323    1.4386    1.2875 H   0  0  0  0  0  0  0  0  0  0  0  0
   -0.7156    0.2279    2.1700 H   0  0  0  0  0  0  0  0  0  0  0  0
   -0.9875   -1.4539    1.7769 H   0  0  0  0  0  0  0  0  0  0  0  0
   -1.3227    0.8883   -0.1938 H   0  0  0  0  0  0  0  0  0  0  0  0
   -1.6019   -0.8146   -0.5884 H   0  0  0  0  0  0  0  0  0  0  0  0
   -3.5371    0.5506   -1.2161 H   0  0  0  0  0  0  0  0  0  0  0  0
   -5.8293   -1.5192   -0.3525 H   0  0  0  0  0  0  0  0  0  0  0  0
   -7.1435   -0.5771    0.3728 H   0  0  0  0  0  0  0  0  0  0  0  0
   -5.7247   -1.0011    1.3312 H   0  0  0  0  0  0  0  0  0  0  0  0
   -5.7784    0.2272   -2.2413 H   0  0  0  0  0  0  0  0  0  0  0  0
   -5.5032    1.9290   -1.8615 H   0  0  0  0  0  0  0  0  0  0  0  0
   -7.0431    1.1661   -1.4295 H   0  0  0  0  0  0  0  0  0  0  0  0
   -6.7356    1.9456    0.9357 H   0  0  0  0  0  0  0  0  0  0  0  0
   -5.3227    1.4857    1.8863 H   0  0  0  0  0  0  0  0  0  0  0  0
   -5.1533    2.6605    0.5804 H   0  0  0  0  0  0  0  0  0  0  0  0
    0.5534   -2.6740    0.2810 H   0  0  0  0  0  0  0  0  0  0  0  0
    3.2539   -3.1445   -1.7924 H   0  0  0  0  0  0  0  0  0  0  0  0
    2.1759   -3.9979   -0.6864 H   0  0  0  0  0  0  0  0  0  0  0  0
    3.8228   -3.6348   -0.1669 H   0  0  0  0  0  0  0  0  0  0  0  0
    5.1388   -1.7375   -1.0438 H   0  0  0  0  0  0  0  0  0  0  0  0
  1  2  1  0
  2  3  1  0
  3  4  2  0
  4  5  1  0
  5  6  2  0
  6  7  1  0
  7  8  2  0
  8  9  1  0
  9 10  1  0
 10 11  1  0
 11 12  2  0
 11 13  1  0
 13 14  1  0
 14 15  1  0
 14 16  1  0
 14 17  1  0
  8 18  1  0
 18 19  2  0
 19 20  1  0
 19 21  1  0
 21 22  2  0
 22  3  1  0
 21  6  1  0
  1 23  1  0
  1 24  1  0
  1 25  1  0
  4 26  1  0
  5 27  1  0
  7 28  1  0
  9 29  1  0
  9 30  1  0
 10 31  1  0
 10 32  1  0
 13 33  1  0
 15 34  1  0
 15 35  1  0
 15 36  1  0
 16 37  1  0
 16 38  1  0
 16 39  1  0
 17 40  1  0
 17 41  1  0
 17 42  1  0
 18 43  1  0
 20 44  1  0
 20 45  1  0
 20 46  1  0
 22 47  1  0
M  END
>  <smiles>
COc1ccc2cc(CCC(=O)NC(C)(C)C)cc(C)c2c1

$$$$
