mol_fba17605152b
     RDKit          3D

 32 33  0  0  0  0  0  0  0  0999 V2000
   -1.8856    0.2129   -2.5372 O   0  0  0  0  0  0  0  0  0  0  0  0
   -1.3171   -0.6381   -1.8396 C   0  0  0  0  0  0  0  0  0  0  0  0
   -1.0141   -0.4325   -0.4675 N   0  0  0  0  0  0  0  0  0  0  0  0
   -0.0434   -1.3002    0.2253 C   0  0  0  0  0  0  0  0  0  0  0  0
    1.4120   -0.8928    0.0915 C   0  0  0  0  0  0  0  0  0  0  0  0
    2.3884   -1.7184    0.6756 C   0  0  0  0  0  0  0  0  0  0  0  0
    3.7443   -1.3971    0.5897 C   0  0  0  0  0  0  0  0  0  0  0  0
    4.1457   -0.2448   -0.0799 C   0  0  0  0  0  0  0  0  0  0  0  0
    3.1921    0.5858   -0.6625 C   0  0  0  0  0  0  0  0  0  0  0  0
    1.8348    0.2658   -0.5781 C   0  0  0  0  0  0  0  0  0  0  0  0
   -1.6024    0.6585    0.2839 C   0  0  0  0  0  0  0  0  0  0  0  0
   -2.8099    1.2571   -0.1090 C   0  0  0  0  0  0  0  0  0  0  0  0
   -3.3888    2.2973    0.6294 C   0  0  0  0  0  0  0  0  0  0  0  0
   -2.7749    2.7614    1.7856 C   0  0  0  0  0  0  0  0  0  0  0  0
   -1.5840    2.1822    2.2041 C   0  0  0  0  0  0  0  0  0  0  0  0
   -1.0084    1.1413    1.4645 C   0  0  0  0  0  0  0  0  0  0  0  0
   -0.8994   -1.9853   -2.4742 C   0  0  0  0  0  0  0  0  0  0  0  0
   -1.4370   -3.0521   -1.8130 F   0  0  0  0  0  0  0  0  0  0  0  0
   -1.3025   -2.1125   -3.7702 F   0  0  0  0  0  0  0  0  0  0  0  0
    0.4483   -2.1785   -2.4801 F   0  0  0  0  0  0  0  0  0  0  0  0
   -0.3136   -1.3748    1.2860 H   0  0  0  0  0  0  0  0  0  0  0  0
   -0.1351   -2.3205   -0.1550 H   0  0  0  0  0  0  0  0  0  0  0  0
    2.0979   -2.6256    1.2023 H   0  0  0  0  0  0  0  0  0  0  0  0
    4.4876   -2.0476    1.0437 H   0  0  0  0  0  0  0  0  0  0  0  0
    5.2009    0.0062   -0.1491 H   0  0  0  0  0  0  0  0  0  0  0  0
    3.5038    1.4869   -1.1853 H   0  0  0  0  0  0  0  0  0  0  0  0
    1.1205    0.9435   -1.0412 H   0  0  0  0  0  0  0  0  0  0  0  0
   -3.3573    0.9190   -0.9842 H   0  0  0  0  0  0  0  0  0  0  0  0
   -4.3245    2.7384    0.2945 H   0  0  0  0  0  0  0  0  0  0  0  0
   -3.2225    3.5704    2.3564 H   0  0  0  0  0  0  0  0  0  0  0  0
   -1.0923    2.5420    3.1046 H   0  0  0  0  0  0  0  0  0  0  0  0
   -0.0637    0.7523    1.8326 H   0  0  0  0  0  0  0  0  0  0  0  0
  1  2  2  0
  2  3  1  0
  3  4  1  0
  4  5  1  0
  5  6  2  0
  6  7  1  0
  7  8  2  0
  8  9  1  0
  9 10  2  0
  3 11  1  0
 11 12  2  0
 12 13  1  0
 13 14  2  0
 14 15  1  0
 15 16  2  0
  2 17  1  0
 17 18  1  0
 17 19  1  0
 17 20  1  0
 10  5  1  0
 16 11  1  0
  4 21  1  0
  4 22  1  0
  6 23  1  0
  7 24  1  0
  8 25  1  0
  9 26  1  0
 10 27  1  0
 12 28  1  0
 13 29  1  0
 14 30  1  0
 15 31  1  0
 16 32  1  0
M  END
>  <smiles>
O=C(N(Cc1ccccc1)c1ccccc1)C(F)(F)F

$$$$
