mol_43a9dfd2fcfe
     RDKit          3D

 56 57  0  0  0  0  0  0  0  0999 V2000
    6.0236    0.3958   -3.3690 C   0  0  0  0  0  0  0  0  0  0  0  0
    4.8456   -0.5362   -3.1235 C   0  0  0  0  0  0  0  0  0  0  0  0
    4.2220   -0.3702   -1.7301 C   0  0  0  0  0  0  0  0  0  0  0  0
    5.1578   -0.5899   -0.6197 N   0  0  0  0  0  0  0  0  0  0  0  0
    5.5921   -1.9857   -0.5214 C   0  0  0  0  0  0  0  0  0  0  0  0
    4.6462   -0.0915    0.6751 C   0  0  0  0  0  0  0  0  0  0  0  0
    3.3593   -0.7897    1.1431 C   0  0  0  0  0  0  0  0  0  0  0  0
    3.3866   -1.8825    1.7033 O   0  0  0  0  0  0  0  0  0  0  0  0
    2.2126   -0.0794    0.8535 N   0  0  0  0  0  0  0  0  0  0  0  0
    0.8534   -0.3938    1.1162 C   0  0  0  0  0  0  0  0  0  0  0  0
   -0.0807    0.5479    0.6873 C   0  0  0  0  0  0  0  0  0  0  0  0
   -1.4206    0.4461    0.8208 N   0  0  0  0  0  0  0  0  0  0  0  0
   -1.9141   -0.6534    1.4470 C   0  0  0  0  0  0  0  0  0  0  0  0
   -3.4299   -0.7589    1.5918 C   0  0  0  0  0  0  0  0  0  0  0  0
   -4.1749    0.2897    0.8893 N   0  0  0  0  0  0  0  0  0  0  0  0
   -4.3444    0.1297   -0.5485 C   0  0  0  0  0  0  0  0  0  0  0  0
   -4.6235    1.4267   -1.2834 C   0  0  0  0  0  0  0  0  0  0  0  0
   -5.7338    2.1751   -0.5692 C   0  0  0  0  0  0  0  0  0  0  0  0
   -5.3418    2.4893    0.8722 C   0  0  0  0  0  0  0  0  0  0  0  0
   -4.3304    3.6344    0.9554 C   0  0  0  0  0  0  0  0  0  0  0  0
   -4.7751    1.2923    1.6288 C   0  0  0  0  0  0  0  0  0  0  0  0
   -4.7998    1.2864    2.8615 O   0  0  0  0  0  0  0  0  0  0  0  0
   -1.0723   -1.6596    1.9436 C   0  0  0  0  0  0  0  0  0  0  0  0
   -1.6272   -2.8913    2.6112 C   0  0  0  0  0  0  0  0  0  0  0  0
    0.3198   -1.5242    1.7443 C   0  0  0  0  0  0  0  0  0  0  0  0
    1.0691   -2.5744    2.1995 O   0  0  0  0  0  0  0  0  0  0  0  0
    5.7344    1.4409   -3.2196 H   0  0  0  0  0  0  0  0  0  0  0  0
    6.3804    0.2873   -4.3982 H   0  0  0  0  0  0  0  0  0  0  0  0
    6.8598    0.1695   -2.7004 H   0  0  0  0  0  0  0  0  0  0  0  0
    4.0728   -0.3253   -3.8730 H   0  0  0  0  0  0  0  0  0  0  0  0
    5.1573   -1.5733   -3.2890 H   0  0  0  0  0  0  0  0  0  0  0  0
    3.3571   -1.0408   -1.6512 H   0  0  0  0  0  0  0  0  0  0  0  0
    3.8325    0.6547   -1.6733 H   0  0  0  0  0  0  0  0  0  0  0  0
    4.7516   -2.6828   -0.4375 H   0  0  0  0  0  0  0  0  0  0  0  0
    6.2489   -2.1292    0.3441 H   0  0  0  0  0  0  0  0  0  0  0  0
    6.1844   -2.2715   -1.3965 H   0  0  0  0  0  0  0  0  0  0  0  0
    5.4035   -0.2231    1.4579 H   0  0  0  0  0  0  0  0  0  0  0  0
    4.4824    0.9910    0.6094 H   0  0  0  0  0  0  0  0  0  0  0  0
    2.3627    0.8020    0.3755 H   0  0  0  0  0  0  0  0  0  0  0  0
    0.2280    1.4641    0.1904 H   0  0  0  0  0  0  0  0  0  0  0  0
   -3.6675   -0.7331    2.6603 H   0  0  0  0  0  0  0  0  0  0  0  0
   -3.7727   -1.7210    1.1928 H   0  0  0  0  0  0  0  0  0  0  0  0
   -5.1786   -0.5682   -0.6899 H   0  0  0  0  0  0  0  0  0  0  0  0
   -3.4500   -0.3399   -0.9721 H   0  0  0  0  0  0  0  0  0  0  0  0
   -4.9156    1.2120   -2.3173 H   0  0  0  0  0  0  0  0  0  0  0  0
   -3.7152    2.0377   -1.3291 H   0  0  0  0  0  0  0  0  0  0  0  0
   -6.6418    1.5582   -0.5713 H   0  0  0  0  0  0  0  0  0  0  0  0
   -5.9766    3.0958   -1.1121 H   0  0  0  0  0  0  0  0  0  0  0  0
   -6.2517    2.8013    1.4011 H   0  0  0  0  0  0  0  0  0  0  0  0
   -4.1568    3.9190    1.9993 H   0  0  0  0  0  0  0  0  0  0  0  0
   -4.6948    4.5198    0.4245 H   0  0  0  0  0  0  0  0  0  0  0  0
   -3.3588    3.3543    0.5351 H   0  0  0  0  0  0  0  0  0  0  0  0
   -1.8556   -3.6509    1.8571 H   0  0  0  0  0  0  0  0  0  0  0  0
   -2.5359   -2.6702    3.1787 H   0  0  0  0  0  0  0  0  0  0  0  0
   -0.9245   -3.3144    3.3363 H   0  0  0  0  0  0  0  0  0  0  0  0
    2.0204   -2.3964    2.0499 H   0  0  0  0  0  0  0  0  0  0  0  0
  1  2  1  0
  2  3  1  0
  3  4  1  0
  4  5  1  0
  4  6  1  0
  6  7  1  0
  7  8  2  0
  7  9  1  0
  9 10  1  0
 10 11  1  0
 11 12  2  0
 12 13  1  0
 13 14  1  0
 14 15  1  0
 15 16  1  0
 16 17  1  0
 17 18  1  0
 18 19  1  0
 19 20  1  0
 19 21  1  0
 21 22  2  0
 13 23  2  0
 23 24  1  0
 23 25  1  0
 25 26  1  0
 25 10  2  0
 21 15  1  0
  1 27  1  0
  1 28  1  0
  1 29  1  0
  2 30  1  0
  2 31  1  0
  3 32  1  0
  3 33  1  0
  5 34  1  0
  5 35  1  0
  5 36  1  0
  6 37  1  0
  6 38  1  0
  9 39  1  0
 11 40  1  0
 14 41  1  0
 14 42  1  0
 16 43  1  0
 16 44  1  0
 17 45  1  0
 17 46  1  0
 18 47  1  0
 18 48  1  0
 19 49  1  0
 20 50  1  0
 20 51  1  0
 20 52  1  0
 24 53  1  0
 24 54  1  0
 24 55  1  0
 26 56  1  0
M  END
>  <smiles>
CCCN(C)CC(=O)Nc1cnc(CN2CCCC(C)C2=O)c(C)c1O

$$$$
