mol_2aaa8714ae39
     RDKit          3D

 62 62  0  0  0  0  0  0  0  0999 V2000
    5.5675    2.0623    0.9210 C   0  0  0  0  0  0  0  0  0  0  0  0
    4.6481    1.2722    0.0006 C   0  0  0  0  0  0  0  0  0  0  0  0
    3.1740    1.6062    0.2657 C   0  0  0  0  0  0  0  0  0  0  0  0
    2.2501    0.9623   -0.6749 N   0  0  0  0  0  0  0  0  0  0  0  0
    2.3307   -0.4994   -0.7767 C   0  0  0  0  0  0  0  0  0  0  0  0
    2.2211   -1.3170    0.5206 C   0  0  0  0  0  0  0  0  0  0  0  0
    2.8276   -2.7189    0.3970 C   0  0  0  0  0  0  0  0  0  0  0  0
    2.1812   -3.6564   -0.6263 C   0  0  0  0  0  0  0  0  0  0  0  0
    0.7576   -4.0791   -0.2683 C   0  0  0  0  0  0  0  0  0  0  0  0
   -0.2466   -3.2651   -0.9212 N   0  0  0  0  0  0  0  0  0  0  0  0
   -1.4080   -2.8777   -0.2846 C   0  0  0  0  0  0  0  0  0  0  0  0
   -1.6263   -3.0719    0.9051 O   0  0  0  0  0  0  0  0  0  0  0  0
   -2.4100   -2.2420   -1.2336 C   0  0  0  0  0  0  0  0  0  0  0  0
   -3.5627   -1.5225   -0.5278 C   0  0  0  0  0  0  0  0  0  0  0  0
   -3.1683   -0.2065    0.1932 C   0  0  0  0  0  0  0  0  0  0  0  0
   -4.3270    0.2137    1.0982 C   0  0  0  0  0  0  0  0  0  0  0  0
   -2.7841    0.8844   -0.8369 C   0  0  0  0  0  0  0  0  0  0  0  0
   -2.1327    2.2156   -0.3825 C   0  0  0  0  0  0  0  0  0  0  0  0
   -3.1306    3.3899   -0.2374 C   0  0  0  0  0  0  0  0  0  0  0  0
   -3.9973    3.3421    0.9263 N   0  0  0  0  0  0  0  0  0  0  0  0
   -1.1624    2.1111    0.8099 C   0  0  0  0  0  0  0  0  0  0  0  0
    0.0522    1.1865    0.6136 C   0  0  0  0  0  0  0  0  0  0  0  0
    0.8957    1.5240   -0.6209 C   0  0  0  0  0  0  0  0  0  0  0  0
    5.3589    1.8358    1.9715 H   0  0  0  0  0  0  0  0  0  0  0  0
    6.6132    1.8093    0.7198 H   0  0  0  0  0  0  0  0  0  0  0  0
    5.4440    3.1394    0.7698 H   0  0  0  0  0  0  0  0  0  0  0  0
    4.8394    0.2051    0.1579 H   0  0  0  0  0  0  0  0  0  0  0  0
    4.9023    1.5019   -1.0410 H   0  0  0  0  0  0  0  0  0  0  0  0
    3.0669    2.6949    0.1706 H   0  0  0  0  0  0  0  0  0  0  0  0
    2.9230    1.3650    1.3046 H   0  0  0  0  0  0  0  0  0  0  0  0
    1.5708   -0.8519   -1.4859 H   0  0  0  0  0  0  0  0  0  0  0  0
    3.2834   -0.7386   -1.2657 H   0  0  0  0  0  0  0  0  0  0  0  0
    1.1794   -1.3982    0.8406 H   0  0  0  0  0  0  0  0  0  0  0  0
    2.7560   -0.8189    1.3357 H   0  0  0  0  0  0  0  0  0  0  0  0
    2.7970   -3.1974    1.3843 H   0  0  0  0  0  0  0  0  0  0  0  0
    3.8913   -2.6174    0.1458 H   0  0  0  0  0  0  0  0  0  0  0  0
    2.7983   -4.5642   -0.6499 H   0  0  0  0  0  0  0  0  0  0  0  0
    2.2291   -3.2264   -1.6331 H   0  0  0  0  0  0  0  0  0  0  0  0
    0.6021   -4.1004    0.8153 H   0  0  0  0  0  0  0  0  0  0  0  0
    0.5861   -5.0965   -0.6386 H   0  0  0  0  0  0  0  0  0  0  0  0
   -0.1675   -3.1160   -1.9188 H   0  0  0  0  0  0  0  0  0  0  0  0
   -1.8868   -1.5852   -1.9337 H   0  0  0  0  0  0  0  0  0  0  0  0
   -2.8304   -3.0616   -1.8307 H   0  0  0  0  0  0  0  0  0  0  0  0
   -4.3436   -1.3034   -1.2676 H   0  0  0  0  0  0  0  0  0  0  0  0
   -4.0114   -2.2157    0.1954 H   0  0  0  0  0  0  0  0  0  0  0  0
   -2.3181   -0.4276    0.8431 H   0  0  0  0  0  0  0  0  0  0  0  0
   -4.6960   -0.6340    1.6863 H   0  0  0  0  0  0  0  0  0  0  0  0
   -4.0046    0.9647    1.8218 H   0  0  0  0  0  0  0  0  0  0  0  0
   -5.1671    0.6093    0.5185 H   0  0  0  0  0  0  0  0  0  0  0  0
   -3.6589    1.1083   -1.4620 H   0  0  0  0  0  0  0  0  0  0  0  0
   -2.0571    0.4418   -1.5271 H   0  0  0  0  0  0  0  0  0  0  0  0
   -1.5259    2.5313   -1.2443 H   0  0  0  0  0  0  0  0  0  0  0  0
   -3.7558    3.4446   -1.1362 H   0  0  0  0  0  0  0  0  0  0  0  0
   -2.5641    4.3287   -0.2011 H   0  0  0  0  0  0  0  0  0  0  0  0
   -4.5874    4.1726    0.9481 H   0  0  0  0  0  0  0  0  0  0  0  0
   -3.4395    3.3682    1.7786 H   0  0  0  0  0  0  0  0  0  0  0  0
   -0.7810    3.1153    1.0382 H   0  0  0  0  0  0  0  0  0  0  0  0
   -1.7004    1.7844    1.7072 H   0  0  0  0  0  0  0  0  0  0  0  0
    0.6603    1.2565    1.5225 H   0  0  0  0  0  0  0  0  0  0  0  0
   -0.2852    0.1509    0.5415 H   0  0  0  0  0  0  0  0  0  0  0  0
    0.3592    1.1965   -1.5201 H   0  0  0  0  0  0  0  0  0  0  0  0
    0.9701    2.6148   -0.7211 H   0  0  0  0  0  0  0  0  0  0  0  0
  1  2  1  0
  2  3  1  0
  3  4  1  0
  4  5  1  0
  5  6  1  0
  6  7  1  0
  7  8  1  0
  8  9  1  0
  9 10  1  0
 10 11  1  0
 11 12  2  0
 11 13  1  0
 13 14  1  0
 14 15  1  0
 15 16  1  0
 15 17  1  0
 17 18  1  0
 18 19  1  0
 19 20  1  0
 18 21  1  0
 21 22  1  0
 22 23  1  0
 23  4  1  0
  1 24  1  0
  1 25  1  0
  1 26  1  0
  2 27  1  0
  2 28  1  0
  3 29  1  0
  3 30  1  0
  5 31  1  0
  5 32  1  0
  6 33  1  0
  6 34  1  0
  7 35  1  0
  7 36  1  0
  8 37  1  0
  8 38  1  0
  9 39  1  0
  9 40  1  0
 10 41  1  0
 13 42  1  0
 13 43  1  0
 14 44  1  0
 14 45  1  0
 15 46  1  0
 16 47  1  0
 16 48  1  0
 16 49  1  0
 17 50  1  0
 17 51  1  0
 18 52  1  0
 19 53  1  0
 19 54  1  0
 20 55  1  0
 20 56  1  0
 21 57  1  0
 21 58  1  0
 22 59  1  0
 22 60  1  0
 23 61  1  0
 23 62  1  0
M  END
>  <smiles>
CCCN1CCCCCNC(=O)CCC(C)CC(CN)CCC1

$$$$
