mol_bade8edc69f5
     RDKit          3D

 48 49  0  0  0  0  0  0  0  0999 V2000
   -4.3848    1.7798    0.3285 C   0  0  0  0  0  0  0  0  0  0  0  0
   -3.5572    0.5292    0.6762 C   0  0  0  0  0  0  0  0  0  0  0  0
   -3.9545    0.0576    2.0918 C   0  0  0  0  0  0  0  0  0  0  0  0
   -2.0396    0.8803    0.7159 C   0  0  0  0  0  0  0  0  0  0  0  0
   -1.4552    1.4737   -0.5740 C   0  0  0  0  0  0  0  0  0  0  0  0
   -0.0250    1.6863   -0.4343 N   0  0  0  0  0  0  0  0  0  0  0  0
    0.4916    2.9744    0.0137 C   0  0  0  0  0  0  0  0  0  0  0  0
    2.2939    2.8616    0.1622 S   0  0  0  0  0  0  0  0  0  0  0  0
    2.2756    1.1464   -0.3113 C   0  0  0  0  0  0  0  0  0  0  0  0
    3.3801    0.2936   -0.4175 C   0  0  0  0  0  0  0  0  0  0  0  0
    4.5998    0.8362   -0.1236 O   0  0  0  0  0  0  0  0  0  0  0  0
    5.7766    0.0570   -0.3132 C   0  0  0  0  0  0  0  0  0  0  0  0
    6.1171   -0.7490    0.9373 C   0  0  0  0  0  0  0  0  0  0  0  0
    7.3263   -1.4773    0.7576 O   0  0  0  0  0  0  0  0  0  0  0  0
    3.1498   -1.0293   -0.7974 C   0  0  0  0  0  0  0  0  0  0  0  0
    1.8430   -1.4724   -1.0694 C   0  0  0  0  0  0  0  0  0  0  0  0
    1.5599   -2.8711   -1.4744 C   0  0  0  0  0  0  0  0  0  0  0  0
    0.4600   -3.3349   -1.7118 O   0  0  0  0  0  0  0  0  0  0  0  0
    2.6699   -3.6238   -1.5630 O   0  0  0  0  0  0  0  0  0  0  0  0
    0.7548   -0.5944   -0.9608 C   0  0  0  0  0  0  0  0  0  0  0  0
    0.9608    0.7249   -0.5771 C   0  0  0  0  0  0  0  0  0  0  0  0
   -3.8071   -0.6006   -0.3517 C   0  0  0  0  0  0  0  0  0  0  0  0
   -5.2253   -1.1092   -0.3892 C   0  0  0  0  0  0  0  0  0  0  0  0
   -6.1671   -0.5778   -0.9525 O   0  0  0  0  0  0  0  0  0  0  0  0
   -5.3900   -2.2528    0.3000 O   0  0  0  0  0  0  0  0  0  0  0  0
   -4.2410    2.0818   -0.7142 H   0  0  0  0  0  0  0  0  0  0  0  0
   -4.1049    2.6261    0.9661 H   0  0  0  0  0  0  0  0  0  0  0  0
   -5.4567    1.6070    0.4736 H   0  0  0  0  0  0  0  0  0  0  0  0
   -5.0276   -0.1482    2.1663 H   0  0  0  0  0  0  0  0  0  0  0  0
   -3.7207    0.8218    2.8420 H   0  0  0  0  0  0  0  0  0  0  0  0
   -3.4168   -0.8563    2.3686 H   0  0  0  0  0  0  0  0  0  0  0  0
   -1.8580    1.5937    1.5321 H   0  0  0  0  0  0  0  0  0  0  0  0
   -1.4777   -0.0232    0.9883 H   0  0  0  0  0  0  0  0  0  0  0  0
   -1.6560    0.8365   -1.4404 H   0  0  0  0  0  0  0  0  0  0  0  0
   -1.9361    2.4352   -0.7874 H   0  0  0  0  0  0  0  0  0  0  0  0
    0.0689    3.2398    0.9880 H   0  0  0  0  0  0  0  0  0  0  0  0
    0.2368    3.7587   -0.7062 H   0  0  0  0  0  0  0  0  0  0  0  0
    5.7404   -0.5630   -1.2168 H   0  0  0  0  0  0  0  0  0  0  0  0
    6.5951    0.7633   -0.4995 H   0  0  0  0  0  0  0  0  0  0  0  0
    5.3225   -1.4633    1.1724 H   0  0  0  0  0  0  0  0  0  0  0  0
    6.2199   -0.0936    1.8091 H   0  0  0  0  0  0  0  0  0  0  0  0
    8.0542   -0.8317    0.7341 H   0  0  0  0  0  0  0  0  0  0  0  0
    3.9652   -1.7399   -0.8830 H   0  0  0  0  0  0  0  0  0  0  0  0
    2.3391   -4.5066   -1.8321 H   0  0  0  0  0  0  0  0  0  0  0  0
   -0.2451   -0.9587   -1.1771 H   0  0  0  0  0  0  0  0  0  0  0  0
   -3.1415   -1.4513   -0.1550 H   0  0  0  0  0  0  0  0  0  0  0  0
   -3.5723   -0.2722   -1.3710 H   0  0  0  0  0  0  0  0  0  0  0  0
   -6.3410   -2.4642    0.1926 H   0  0  0  0  0  0  0  0  0  0  0  0
  1  2  1  0
  2  3  1  0
  2  4  1  0
  4  5  1  0
  5  6  1  0
  6  7  1  0
  7  8  1  0
  8  9  1  0
  9 10  1  0
 10 11  1  0
 11 12  1  0
 12 13  1  0
 13 14  1  0
 10 15  2  0
 15 16  1  0
 16 17  1  0
 17 18  2  0
 17 19  1  0
 16 20  2  0
 20 21  1  0
  2 22  1  0
 22 23  1  0
 23 24  2  0
 23 25  1  0
 21  6  1  0
 21  9  2  0
  1 26  1  0
  1 27  1  0
  1 28  1  0
  3 29  1  0
  3 30  1  0
  3 31  1  0
  4 32  1  0
  4 33  1  0
  5 34  1  0
  5 35  1  0
  7 36  1  0
  7 37  1  0
 12 38  1  0
 12 39  1  0
 13 40  1  0
 13 41  1  0
 14 42  1  0
 15 43  1  0
 19 44  1  0
 20 45  1  0
 22 46  1  0
 22 47  1  0
 25 48  1  0
M  END
>  <smiles>
CC(C)(CCN1CSc2c(OCCO)cc(C(=O)O)cc21)CC(=O)O

$$$$
