mol_1e3ae8a259cf
     RDKit          3D

 45 47  0  0  0  0  0  0  0  0999 V2000
    3.2688   -1.1400    1.0175 C   0  0  0  0  0  0  0  0  0  0  0  0
    3.6953   -0.5281   -0.3269 C   0  0  0  0  0  0  0  0  0  0  0  0
    4.3728   -1.6354   -1.1571 C   0  0  0  0  0  0  0  0  0  0  0  0
    2.4845    0.0173   -1.1134 C   0  0  0  0  0  0  0  0  0  0  0  0
    1.7066    1.0780   -0.3445 C   0  0  0  0  0  0  0  0  0  0  0  0
    2.2514    2.1489   -0.0679 O   0  0  0  0  0  0  0  0  0  0  0  0
    0.3960    0.8111    0.0196 N   0  0  0  0  0  0  0  0  0  0  0  0
   -0.3615    1.9030    0.6508 C   0  0  0  0  0  0  0  0  0  0  0  0
   -1.8515    1.7947    0.4311 C   0  0  0  0  0  0  0  0  0  0  0  0
   -2.6481    2.9277    0.2433 C   0  0  0  0  0  0  0  0  0  0  0  0
   -4.0172    2.7884    0.0180 C   0  0  0  0  0  0  0  0  0  0  0  0
   -4.5941    1.5187   -0.0408 C   0  0  0  0  0  0  0  0  0  0  0  0
   -3.8096    0.3740    0.1405 C   0  0  0  0  0  0  0  0  0  0  0  0
   -2.4463    0.5203    0.4301 C   0  0  0  0  0  0  0  0  0  0  0  0
   -1.5345   -0.6538    0.7056 C   0  0  0  0  0  0  0  0  0  0  0  0
   -2.1969   -2.0311    0.5402 C   0  0  0  0  0  0  0  0  0  0  0  0
   -3.3756   -2.0198   -0.4274 C   0  0  0  0  0  0  0  0  0  0  0  0
   -4.4198   -0.9958    0.0193 C   0  0  0  0  0  0  0  0  0  0  0  0
   -0.2785   -0.4869   -0.1659 C   0  0  0  0  0  0  0  0  0  0  0  0
    4.7177    0.5924   -0.1681 C   0  0  0  0  0  0  0  0  0  0  0  0
    5.3205    1.1371   -1.0810 O   0  0  0  0  0  0  0  0  0  0  0  0
    4.9372    0.9730    1.1024 O   0  0  0  0  0  0  0  0  0  0  0  0
    4.1336   -1.5371    1.5621 H   0  0  0  0  0  0  0  0  0  0  0  0
    2.7886   -0.4039    1.6713 H   0  0  0  0  0  0  0  0  0  0  0  0
    2.5658   -1.9671    0.8709 H   0  0  0  0  0  0  0  0  0  0  0  0
    5.2777   -2.0042   -0.6599 H   0  0  0  0  0  0  0  0  0  0  0  0
    3.7000   -2.4869   -1.3089 H   0  0  0  0  0  0  0  0  0  0  0  0
    4.6729   -1.2691   -2.1459 H   0  0  0  0  0  0  0  0  0  0  0  0
    2.8209    0.5037   -2.0398 H   0  0  0  0  0  0  0  0  0  0  0  0
    1.8430   -0.8038   -1.4414 H   0  0  0  0  0  0  0  0  0  0  0  0
    0.0020    2.8652    0.2721 H   0  0  0  0  0  0  0  0  0  0  0  0
   -0.1516    1.8677    1.7267 H   0  0  0  0  0  0  0  0  0  0  0  0
   -2.2075    3.9218    0.2617 H   0  0  0  0  0  0  0  0  0  0  0  0
   -4.6344    3.6709   -0.1302 H   0  0  0  0  0  0  0  0  0  0  0  0
   -5.6589    1.4282   -0.2438 H   0  0  0  0  0  0  0  0  0  0  0  0
   -1.2192   -0.5804    1.7569 H   0  0  0  0  0  0  0  0  0  0  0  0
   -1.4623   -2.7859    0.2364 H   0  0  0  0  0  0  0  0  0  0  0  0
   -2.5712   -2.3540    1.5216 H   0  0  0  0  0  0  0  0  0  0  0  0
   -3.8319   -3.0153   -0.4662 H   0  0  0  0  0  0  0  0  0  0  0  0
   -3.0215   -1.7864   -1.4394 H   0  0  0  0  0  0  0  0  0  0  0  0
   -4.8464   -1.2823    0.9879 H   0  0  0  0  0  0  0  0  0  0  0  0
   -5.2339   -0.9824   -0.7149 H   0  0  0  0  0  0  0  0  0  0  0  0
    0.4299   -1.2869    0.0683 H   0  0  0  0  0  0  0  0  0  0  0  0
   -0.5293   -0.5641   -1.2315 H   0  0  0  0  0  0  0  0  0  0  0  0
    5.5164    1.7584    1.0107 H   0  0  0  0  0  0  0  0  0  0  0  0
  1  2  1  0
  2  3  1  0
  2  4  1  0
  4  5  1  0
  5  6  2  0
  5  7  1  0
  7  8  1  0
  8  9  1  0
  9 10  1  0
 10 11  2  0
 11 12  1  0
 12 13  2  0
 13 14  1  0
 14 15  1  0
 15 16  1  0
 16 17  1  0
 17 18  1  0
 15 19  1  0
  2 20  1  0
 20 21  2  0
 20 22  1  0
 19  7  1  0
 14  9  2  0
 18 13  1  0
  1 23  1  0
  1 24  1  0
  1 25  1  0
  3 26  1  0
  3 27  1  0
  3 28  1  0
  4 29  1  0
  4 30  1  0
  8 31  1  0
  8 32  1  0
 10 33  1  0
 11 34  1  0
 12 35  1  0
 15 36  1  0
 16 37  1  0
 16 38  1  0
 17 39  1  0
 17 40  1  0
 18 41  1  0
 18 42  1  0
 19 43  1  0
 19 44  1  0
 22 45  1  0
M  END
>  <smiles>
CC(C)(CC(=O)N1Cc2cccc3c2C(CCC3)C1)C(=O)O

$$$$
