mol_5fb38cafa5c2
     RDKit          3D

 60 63  0  0  0  0  0  0  0  0999 V2000
   -9.7180   -0.2780   -0.2055 C   0  0  0  0  0  0  0  0  0  0  0  0
   -8.5486    0.6471   -0.4320 C   0  0  0  0  0  0  0  0  0  0  0  0
   -8.7381    1.8429   -0.6545 O   0  0  0  0  0  0  0  0  0  0  0  0
   -7.2789    0.0886   -0.3680 N   0  0  0  0  0  0  0  0  0  0  0  0
   -7.0096   -1.3028   -0.0043 C   0  0  0  0  0  0  0  0  0  0  0  0
   -5.6253   -1.4626    0.6087 C   0  0  0  0  0  0  0  0  0  0  0  0
   -4.5277   -1.0031   -0.3591 C   0  0  0  0  0  0  0  0  0  0  0  0
   -3.3266   -0.6344    0.3853 N   0  0  0  0  0  0  0  0  0  0  0  0
   -2.0645   -0.7912   -0.1528 C   0  0  0  0  0  0  0  0  0  0  0  0
   -1.8663   -1.2231   -1.2828 O   0  0  0  0  0  0  0  0  0  0  0  0
   -0.9167   -0.3587    0.6943 C   0  0  0  0  0  0  0  0  0  0  0  0
   -0.9855   -0.3431    2.0879 C   0  0  0  0  0  0  0  0  0  0  0  0
    0.1223    0.0696    2.8210 C   0  0  0  0  0  0  0  0  0  0  0  0
    1.2989    0.4586    2.1682 C   0  0  0  0  0  0  0  0  0  0  0  0
    1.4071    0.4374    0.7705 C   0  0  0  0  0  0  0  0  0  0  0  0
    2.6136    0.8221    0.0902 N   0  0  0  0  0  0  0  0  0  0  0  0
    2.5823    1.0934   -1.3456 C   0  0  0  0  0  0  0  0  0  0  0  0
    3.6047    2.1680   -1.7137 C   0  0  0  0  0  0  0  0  0  0  0  0
    4.9612    1.7459   -1.3580 N   0  0  0  0  0  0  0  0  0  0  0  0
    5.0592    1.1221   -0.2216 C   0  0  0  0  0  0  0  0  0  0  0  0
    6.3895    0.5536    0.2641 C   0  0  0  0  0  0  0  0  0  0  0  0
    7.5713    1.1788   -0.4377 C   0  0  0  0  0  0  0  0  0  0  0  0
    8.6604    0.4667   -0.7456 C   0  0  0  0  0  0  0  0  0  0  0  0
    8.6701   -0.9471   -0.2977 C   0  0  0  0  0  0  0  0  0  0  0  0
    9.9966   -1.6652   -0.3074 C   0  0  0  0  0  0  0  0  0  0  0  0
    7.6290   -1.6045    0.0995 N   0  0  0  0  0  0  0  0  0  0  0  0
    6.4047   -0.9673    0.0753 C   0  0  0  0  0  0  0  0  0  0  0  0
    5.3590   -1.6000   -0.0541 O   0  0  0  0  0  0  0  0  0  0  0  0
    3.8702    0.8712    0.7105 C   0  0  0  0  0  0  0  0  0  0  0  0
    4.1356    0.7419    1.8989 O   0  0  0  0  0  0  0  0  0  0  0  0
    0.2767    0.0143    0.0499 C   0  0  0  0  0  0  0  0  0  0  0  0
   -4.9822    0.1398   -1.2803 C   0  0  0  0  0  0  0  0  0  0  0  0
   -6.1277    0.9385   -0.6724 C   0  0  0  0  0  0  0  0  0  0  0  0
   -9.7835   -0.5399    0.8537 H   0  0  0  0  0  0  0  0  0  0  0  0
  -10.6427    0.2282   -0.4984 H   0  0  0  0  0  0  0  0  0  0  0  0
   -9.6199   -1.1815   -0.8129 H   0  0  0  0  0  0  0  0  0  0  0  0
   -7.1015   -1.9034   -0.9168 H   0  0  0  0  0  0  0  0  0  0  0  0
   -7.7649   -1.6575    0.7030 H   0  0  0  0  0  0  0  0  0  0  0  0
   -5.4534   -2.5075    0.8931 H   0  0  0  0  0  0  0  0  0  0  0  0
   -5.5821   -0.8800    1.5389 H   0  0  0  0  0  0  0  0  0  0  0  0
   -4.2599   -1.8522   -1.0015 H   0  0  0  0  0  0  0  0  0  0  0  0
   -3.4360   -0.1327    1.2559 H   0  0  0  0  0  0  0  0  0  0  0  0
   -1.8710   -0.6753    2.6200 H   0  0  0  0  0  0  0  0  0  0  0  0
    0.0840    0.0845    3.9081 H   0  0  0  0  0  0  0  0  0  0  0  0
    2.1169    0.7897    2.8008 H   0  0  0  0  0  0  0  0  0  0  0  0
    2.7943    0.1555   -1.8721 H   0  0  0  0  0  0  0  0  0  0  0  0
    1.6012    1.4711   -1.6494 H   0  0  0  0  0  0  0  0  0  0  0  0
    3.5672    2.3439   -2.7941 H   0  0  0  0  0  0  0  0  0  0  0  0
    3.3755    3.1190   -1.2181 H   0  0  0  0  0  0  0  0  0  0  0  0
    6.4921    0.7643    1.3348 H   0  0  0  0  0  0  0  0  0  0  0  0
    7.5204    2.2323   -0.7005 H   0  0  0  0  0  0  0  0  0  0  0  0
    9.5227    0.8851   -1.2481 H   0  0  0  0  0  0  0  0  0  0  0  0
   10.2046   -2.0537    0.6940 H   0  0  0  0  0  0  0  0  0  0  0  0
    9.9478   -2.5013   -1.0111 H   0  0  0  0  0  0  0  0  0  0  0  0
   10.8120   -1.0001   -0.6030 H   0  0  0  0  0  0  0  0  0  0  0  0
    0.3011   -0.0721   -1.0335 H   0  0  0  0  0  0  0  0  0  0  0  0
   -5.3328   -0.2951   -2.2259 H   0  0  0  0  0  0  0  0  0  0  0  0
   -4.1505    0.8078   -1.5326 H   0  0  0  0  0  0  0  0  0  0  0  0
   -5.8140    1.4121    0.2656 H   0  0  0  0  0  0  0  0  0  0  0  0
   -6.4244    1.7398   -1.3581 H   0  0  0  0  0  0  0  0  0  0  0  0
  1  2  1  0
  2  3  2  0
  2  4  1  0
  4  5  1  0
  5  6  1  0
  6  7  1  0
  7  8  1  0
  8  9  1  0
  9 10  2  0
  9 11  1  0
 11 12  1  0
 12 13  2  0
 13 14  1  0
 14 15  2  0
 15 16  1  0
 16 17  1  0
 17 18  1  0
 18 19  1  0
 19 20  2  0
 20 21  1  0
 21 22  1  0
 22 23  2  0
 23 24  1  0
 24 25  1  0
 24 26  2  0
 26 27  1  0
 27 28  2  0
 20 29  1  0
 29 30  2  0
 15 31  1  0
  7 32  1  0
 32 33  1  0
 33  4  1  0
 31 11  2  0
 29 16  1  0
 27 21  1  0
  1 34  1  0
  1 35  1  0
  1 36  1  0
  5 37  1  0
  5 38  1  0
  6 39  1  0
  6 40  1  0
  7 41  1  0
  8 42  1  0
 12 43  1  0
 13 44  1  0
 14 45  1  0
 17 46  1  0
 17 47  1  0
 18 48  1  0
 18 49  1  0
 21 50  1  0
 22 51  1  0
 23 52  1  0
 25 53  1  0
 25 54  1  0
 25 55  1  0
 31 56  1  0
 32 57  1  0
 32 58  1  0
 33 59  1  0
 33 60  1  0
M  END
>  <smiles>
CC(=O)N1CCC(NC(=O)c2cccc(N3CCN=C(C4C=CC(C)=NC4=O)C3=O)c2)CC1

$$$$
