mol_287318e9cf43
     RDKit          3D

 43 47  0  0  0  0  0  0  0  0999 V2000
   -6.1051    2.4536    0.3608 O   0  0  0  0  0  0  0  0  0  0  0  0
   -4.9494    2.1297    0.1571 C   0  0  0  0  0  0  0  0  0  0  0  0
   -4.0817    2.9744   -0.4265 O   0  0  0  0  0  0  0  0  0  0  0  0
   -4.3423    0.8227    0.5034 C   0  0  0  0  0  0  0  0  0  0  0  0
   -5.1451   -0.1323    1.1343 C   0  0  0  0  0  0  0  0  0  0  0  0
   -4.6108   -1.3725    1.4741 C   0  0  0  0  0  0  0  0  0  0  0  0
   -3.2748   -1.6608    1.1818 C   0  0  0  0  0  0  0  0  0  0  0  0
   -2.4462   -0.7214    0.5473 C   0  0  0  0  0  0  0  0  0  0  0  0
   -1.0997   -1.0021    0.2466 N   0  0  0  0  0  0  0  0  0  0  0  0
   -0.7798   -2.3483   -0.2600 C   0  0  0  0  0  0  0  0  0  0  0  0
    0.1528   -2.2805   -1.4710 C   0  0  0  0  0  0  0  0  0  0  0  0
    1.3729   -1.4554   -1.1602 C   0  0  0  0  0  0  0  0  0  0  0  0
    2.5804   -1.6842   -1.8346 C   0  0  0  0  0  0  0  0  0  0  0  0
    3.6882   -0.8918   -1.5538 C   0  0  0  0  0  0  0  0  0  0  0  0
    4.8793   -1.1200   -2.1805 O   0  0  0  0  0  0  0  0  0  0  0  0
    3.6011    0.1516   -0.6340 C   0  0  0  0  0  0  0  0  0  0  0  0
    2.3879    0.3977    0.0371 C   0  0  0  0  0  0  0  0  0  0  0  0
    2.2912    1.4425    0.9677 C   0  0  0  0  0  0  0  0  0  0  0  0
    1.1115    1.6654    1.6673 C   0  0  0  0  0  0  0  0  0  0  0  0
   -0.0045    0.8662    1.4186 C   0  0  0  0  0  0  0  0  0  0  0  0
    0.0394   -0.1781    0.4780 C   0  0  0  0  0  0  0  0  0  0  0  0
    1.2572   -0.4169   -0.2133 C   0  0  0  0  0  0  0  0  0  0  0  0
    3.3434    2.2784    1.2641 O   0  0  0  0  0  0  0  0  0  0  0  0
    4.2770    2.3764    0.1795 C   0  0  0  0  0  0  0  0  0  0  0  0
    4.7833    1.0117   -0.2743 C   0  0  0  0  0  0  0  0  0  0  0  0
   -3.0032    0.5248    0.2147 C   0  0  0  0  0  0  0  0  0  0  0  0
   -4.6111    3.7819   -0.5923 H   0  0  0  0  0  0  0  0  0  0  0  0
   -6.1854    0.0886    1.3648 H   0  0  0  0  0  0  0  0  0  0  0  0
   -5.2301   -2.1135    1.9734 H   0  0  0  0  0  0  0  0  0  0  0  0
   -2.8767   -2.6262    1.4846 H   0  0  0  0  0  0  0  0  0  0  0  0
   -0.3181   -2.9346    0.5462 H   0  0  0  0  0  0  0  0  0  0  0  0
   -1.6799   -2.8913   -0.5750 H   0  0  0  0  0  0  0  0  0  0  0  0
   -0.3668   -1.8246   -2.3228 H   0  0  0  0  0  0  0  0  0  0  0  0
    0.4420   -3.2988   -1.7559 H   0  0  0  0  0  0  0  0  0  0  0  0
    2.6420   -2.4832   -2.5674 H   0  0  0  0  0  0  0  0  0  0  0  0
    4.7799   -1.8799   -2.7768 H   0  0  0  0  0  0  0  0  0  0  0  0
    1.0569    2.4633    2.4023 H   0  0  0  0  0  0  0  0  0  0  0  0
   -0.9071    1.0526    1.9943 H   0  0  0  0  0  0  0  0  0  0  0  0
    5.1200    2.9821    0.5291 H   0  0  0  0  0  0  0  0  0  0  0  0
    3.8059    2.9273   -0.6459 H   0  0  0  0  0  0  0  0  0  0  0  0
    5.3319    0.5200    0.5376 H   0  0  0  0  0  0  0  0  0  0  0  0
    5.4572    1.1443   -1.1270 H   0  0  0  0  0  0  0  0  0  0  0  0
   -2.3838    1.2610   -0.2933 H   0  0  0  0  0  0  0  0  0  0  0  0
  1  2  2  0
  2  3  1  0
  2  4  1  0
  4  5  1  0
  5  6  2  0
  6  7  1  0
  7  8  2  0
  8  9  1  0
  9 10  1  0
 10 11  1  0
 11 12  1  0
 12 13  2  0
 13 14  1  0
 14 15  1  0
 14 16  2  0
 16 17  1  0
 17 18  2  0
 18 19  1  0
 19 20  2  0
 20 21  1  0
 21 22  2  0
 18 23  1  0
 23 24  1  0
 24 25  1  0
  8 26  1  0
 26  4  2  0
 21  9  1  0
 22 12  1  0
 25 16  1  0
 22 17  1  0
  3 27  1  0
  5 28  1  0
  6 29  1  0
  7 30  1  0
 10 31  1  0
 10 32  1  0
 11 33  1  0
 11 34  1  0
 13 35  1  0
 15 36  1  0
 19 37  1  0
 20 38  1  0
 24 39  1  0
 24 40  1  0
 25 41  1  0
 25 42  1  0
 26 43  1  0
M  END
>  <smiles>
O=C(O)c1cccc(N2CCc3cc(O)c4c5c(ccc2c35)OCC4)c1

$$$$
