mol_c567bf804385
     RDKit          3D

 44 48  0  0  0  0  0  0  0  0999 V2000
   -3.0327    3.6422   -0.5917 O   0  0  0  0  0  0  0  0  0  0  0  0
   -3.0454    2.4778   -0.1902 C   0  0  0  0  0  0  0  0  0  0  0  0
   -4.1246    1.5114   -0.5950 C   0  0  0  0  0  0  0  0  0  0  0  0
   -3.6028    0.1094   -0.7642 C   0  0  0  0  0  0  0  0  0  0  0  0
   -4.4202   -0.8256   -1.4250 C   0  0  0  0  0  0  0  0  0  0  0  0
   -3.9793   -2.1276   -1.6405 C   0  0  0  0  0  0  0  0  0  0  0  0
   -2.7145   -2.5042   -1.2034 C   0  0  0  0  0  0  0  0  0  0  0  0
   -1.8982   -1.5812   -0.5331 C   0  0  0  0  0  0  0  0  0  0  0  0
   -0.5427   -1.9898   -0.1123 C   0  0  0  0  0  0  0  0  0  0  0  0
   -0.1639   -3.1354   -0.3502 O   0  0  0  0  0  0  0  0  0  0  0  0
    0.2511   -1.0246    0.5278 N   0  0  0  0  0  0  0  0  0  0  0  0
   -0.2106    0.2695    0.8115 C   0  0  0  0  0  0  0  0  0  0  0  0
   -1.4637    0.6547    0.4647 C   0  0  0  0  0  0  0  0  0  0  0  0
   -2.3349   -0.2772   -0.2837 C   0  0  0  0  0  0  0  0  0  0  0  0
   -2.0681    1.9846    0.8503 C   0  0  0  0  0  0  0  0  0  0  0  0
    0.7039    1.2023    1.6000 C   0  0  0  0  0  0  0  0  0  0  0  0
    2.1806    0.7895    1.6501 C   0  0  0  0  0  0  0  0  0  0  0  0
    2.8841    1.0869    0.3070 C   0  0  0  0  0  0  0  0  0  0  0  0
    3.5240   -0.1463   -0.3404 C   0  0  0  0  0  0  0  0  0  0  0  0
    4.0716    0.1753   -1.7170 C   0  0  0  0  0  0  0  0  0  0  0  0
    3.9049   -0.4583   -2.7450 O   0  0  0  0  0  0  0  0  0  0  0  0
    4.8707    1.2608   -1.7201 O   0  0  0  0  0  0  0  0  0  0  0  0
    2.5328   -1.3201   -0.4084 C   0  0  0  0  0  0  0  0  0  0  0  0
    1.6336   -1.4492    0.8421 C   0  0  0  0  0  0  0  0  0  0  0  0
    2.2212   -0.6849    2.0203 C   0  0  0  0  0  0  0  0  0  0  0  0
   -4.9043    1.5262    0.1741 H   0  0  0  0  0  0  0  0  0  0  0  0
   -4.5482    1.8607   -1.5438 H   0  0  0  0  0  0  0  0  0  0  0  0
   -5.4053   -0.5354   -1.7875 H   0  0  0  0  0  0  0  0  0  0  0  0
   -4.6120   -2.8431   -2.1598 H   0  0  0  0  0  0  0  0  0  0  0  0
   -2.3598   -3.5162   -1.3893 H   0  0  0  0  0  0  0  0  0  0  0  0
   -2.6108    1.8866    1.7979 H   0  0  0  0  0  0  0  0  0  0  0  0
   -1.3186    2.7699    0.9751 H   0  0  0  0  0  0  0  0  0  0  0  0
    0.3237    1.2424    2.6302 H   0  0  0  0  0  0  0  0  0  0  0  0
    0.6590    2.2232    1.2052 H   0  0  0  0  0  0  0  0  0  0  0  0
    2.6731    1.3733    2.4378 H   0  0  0  0  0  0  0  0  0  0  0  0
    3.6598    1.8424    0.4899 H   0  0  0  0  0  0  0  0  0  0  0  0
    2.1937    1.5570   -0.4059 H   0  0  0  0  0  0  0  0  0  0  0  0
    4.3869   -0.4605    0.2624 H   0  0  0  0  0  0  0  0  0  0  0  0
    5.1691    1.3277   -2.6519 H   0  0  0  0  0  0  0  0  0  0  0  0
    1.9190   -1.2556   -1.3162 H   0  0  0  0  0  0  0  0  0  0  0  0
    3.1171   -2.2441   -0.5169 H   0  0  0  0  0  0  0  0  0  0  0  0
    1.5984   -2.5104    1.1203 H   0  0  0  0  0  0  0  0  0  0  0  0
    1.6370   -0.8706    2.9307 H   0  0  0  0  0  0  0  0  0  0  0  0
    3.2452   -1.0133    2.2333 H   0  0  0  0  0  0  0  0  0  0  0  0
  1  2  2  0
  2  3  1  0
  3  4  1  0
  4  5  2  0
  5  6  1  0
  6  7  2  0
  7  8  1  0
  8  9  1  0
  9 10  2  0
  9 11  1  0
 11 12  1  0
 12 13  2  0
 13 14  1  0
 13 15  1  0
 12 16  1  0
 16 17  1  0
 17 18  1  0
 18 19  1  0
 19 20  1  0
 20 21  2  0
 20 22  1  0
 19 23  1  0
 23 24  1  0
 24 25  1  0
 15  2  1  0
 25 17  1  0
 14  4  1  0
 14  8  2  0
 24 11  1  0
  3 26  1  0
  3 27  1  0
  5 28  1  0
  6 29  1  0
  7 30  1  0
 15 31  1  0
 15 32  1  0
 16 33  1  0
 16 34  1  0
 17 35  1  0
 18 36  1  0
 18 37  1  0
 19 38  1  0
 22 39  1  0
 23 40  1  0
 23 41  1  0
 24 42  1  0
 25 43  1  0
 25 44  1  0
M  END
>  <smiles>
O=C1Cc2cccc3c(=O)n4c(c(c23)C1)CC1CC(C(=O)O)CC4C1

$$$$
