mol_dc5a47c688e2
     RDKit          3D

 61 65  0  0  0  0  0  0  0  0999 V2000
   -3.9472    2.8114   -2.4212 C   0  0  0  0  0  0  0  0  0  0  0  0
   -4.2606    1.6947   -1.4909 C   0  0  0  0  0  0  0  0  0  0  0  0
   -5.4278    1.5389   -0.7650 C   0  0  0  0  0  0  0  0  0  0  0  0
   -5.3496    0.3830   -0.0242 N   0  0  0  0  0  0  0  0  0  0  0  0
   -4.1102   -0.1901   -0.2433 C   0  0  0  0  0  0  0  0  0  0  0  0
   -3.4208    0.5909   -1.1553 C   0  0  0  0  0  0  0  0  0  0  0  0
   -2.0794    0.2890   -1.6219 C   0  0  0  0  0  0  0  0  0  0  0  0
   -1.8530    0.0353   -2.9791 C   0  0  0  0  0  0  0  0  0  0  0  0
   -0.5673   -0.2583   -3.4360 C   0  0  0  0  0  0  0  0  0  0  0  0
    0.5030   -0.2924   -2.5397 C   0  0  0  0  0  0  0  0  0  0  0  0
    0.2887   -0.0236   -1.1813 C   0  0  0  0  0  0  0  0  0  0  0  0
    1.3928   -0.0544   -0.1833 C   0  0  0  0  0  0  0  0  0  0  0  0
    1.1602   -0.2949    0.9966 O   0  0  0  0  0  0  0  0  0  0  0  0
    2.6543    0.2202   -0.6496 N   0  0  0  0  0  0  0  0  0  0  0  0
    3.8034    0.2091    0.2341 C   0  0  0  0  0  0  0  0  0  0  0  0
    5.0761    0.5244   -0.5586 C   0  0  0  0  0  0  0  0  0  0  0  0
    5.0089    0.7416   -1.7736 O   0  0  0  0  0  0  0  0  0  0  0  0
    6.2770    0.5520    0.1384 N   0  0  0  0  0  0  0  0  0  0  0  0
    7.5130    0.8694   -0.5738 C   0  0  0  0  0  0  0  0  0  0  0  0
    8.5824   -0.1879   -0.3111 C   0  0  0  0  0  0  0  0  0  0  0  0
    8.7925   -0.4030    1.1868 C   0  0  0  0  0  0  0  0  0  0  0  0
    7.4687   -0.7141    1.8833 C   0  0  0  0  0  0  0  0  0  0  0  0
    6.4188    0.3527    1.5813 C   0  0  0  0  0  0  0  0  0  0  0  0
   -1.0055    0.2587   -0.7253 C   0  0  0  0  0  0  0  0  0  0  0  0
   -3.7233   -1.4211    0.5141 C   0  0  0  0  0  0  0  0  0  0  0  0
   -4.9370   -2.2982    0.8202 C   0  0  0  0  0  0  0  0  0  0  0  0
   -6.1167   -1.4908    1.3076 C   0  0  0  0  0  0  0  0  0  0  0  0
   -7.0707   -2.0763    2.1492 C   0  0  0  0  0  0  0  0  0  0  0  0
   -8.2080   -1.3622    2.5276 C   0  0  0  0  0  0  0  0  0  0  0  0
   -8.4107   -0.0654    2.0564 C   0  0  0  0  0  0  0  0  0  0  0  0
   -7.4768    0.5288    1.2053 C   0  0  0  0  0  0  0  0  0  0  0  0
   -6.3293   -0.1803    0.8354 C   0  0  0  0  0  0  0  0  0  0  0  0
   -4.6680    3.6287   -2.3151 H   0  0  0  0  0  0  0  0  0  0  0  0
   -3.9792    2.4634   -3.4584 H   0  0  0  0  0  0  0  0  0  0  0  0
   -2.9503    3.2165   -2.2196 H   0  0  0  0  0  0  0  0  0  0  0  0
   -6.3106    2.1610   -0.7471 H   0  0  0  0  0  0  0  0  0  0  0  0
   -2.6816    0.0502   -3.6838 H   0  0  0  0  0  0  0  0  0  0  0  0
   -0.4024   -0.4703   -4.4896 H   0  0  0  0  0  0  0  0  0  0  0  0
    1.4882   -0.5545   -2.9147 H   0  0  0  0  0  0  0  0  0  0  0  0
    2.8293    0.4987   -1.6093 H   0  0  0  0  0  0  0  0  0  0  0  0
    3.6471    0.9669    1.0079 H   0  0  0  0  0  0  0  0  0  0  0  0
    3.8793   -0.7845    0.6860 H   0  0  0  0  0  0  0  0  0  0  0  0
    7.3418    0.9567   -1.6512 H   0  0  0  0  0  0  0  0  0  0  0  0
    7.8510    1.8499   -0.2175 H   0  0  0  0  0  0  0  0  0  0  0  0
    9.5258    0.1108   -0.7810 H   0  0  0  0  0  0  0  0  0  0  0  0
    8.2764   -1.1363   -0.7703 H   0  0  0  0  0  0  0  0  0  0  0  0
    9.5004   -1.2232    1.3494 H   0  0  0  0  0  0  0  0  0  0  0  0
    9.2356    0.4983    1.6278 H   0  0  0  0  0  0  0  0  0  0  0  0
    7.6252   -0.7876    2.9650 H   0  0  0  0  0  0  0  0  0  0  0  0
    7.1036   -1.6903    1.5405 H   0  0  0  0  0  0  0  0  0  0  0  0
    5.4733    0.0721    2.0490 H   0  0  0  0  0  0  0  0  0  0  0  0
    6.7197    1.3151    2.0121 H   0  0  0  0  0  0  0  0  0  0  0  0
   -1.1730    0.4630    0.3308 H   0  0  0  0  0  0  0  0  0  0  0  0
   -2.9853   -2.0107   -0.0409 H   0  0  0  0  0  0  0  0  0  0  0  0
   -3.2494   -1.1093    1.4540 H   0  0  0  0  0  0  0  0  0  0  0  0
   -4.6529   -3.0524    1.5636 H   0  0  0  0  0  0  0  0  0  0  0  0
   -5.2480   -2.8309   -0.0878 H   0  0  0  0  0  0  0  0  0  0  0  0
   -6.9377   -3.0947    2.5071 H   0  0  0  0  0  0  0  0  0  0  0  0
   -8.9424   -1.8213    3.1847 H   0  0  0  0  0  0  0  0  0  0  0  0
   -9.3002    0.4850    2.3528 H   0  0  0  0  0  0  0  0  0  0  0  0
   -7.6615    1.5424    0.8650 H   0  0  0  0  0  0  0  0  0  0  0  0
  1  2  1  0
  2  3  2  0
  3  4  1  0
  4  5  1  0
  5  6  2  0
  6  7  1  0
  7  8  2  0
  8  9  1  0
  9 10  2  0
 10 11  1  0
 11 12  1  0
 12 13  2  0
 12 14  1  0
 14 15  1  0
 15 16  1  0
 16 17  2  0
 16 18  1  0
 18 19  1  0
 19 20  1  0
 20 21  1  0
 21 22  1  0
 22 23  1  0
 11 24  2  0
  5 25  1  0
 25 26  1  0
 26 27  1  0
 27 28  2  0
 28 29  1  0
 29 30  2  0
 30 31  1  0
 31 32  2  0
  6  2  1  0
 24  7  1  0
 32 27  1  0
 32  4  1  0
 23 18  1  0
  1 33  1  0
  1 34  1  0
  1 35  1  0
  3 36  1  0
  8 37  1  0
  9 38  1  0
 10 39  1  0
 14 40  1  0
 15 41  1  0
 15 42  1  0
 19 43  1  0
 19 44  1  0
 20 45  1  0
 20 46  1  0
 21 47  1  0
 21 48  1  0
 22 49  1  0
 22 50  1  0
 23 51  1  0
 23 52  1  0
 24 53  1  0
 25 54  1  0
 25 55  1  0
 26 56  1  0
 26 57  1  0
 28 58  1  0
 29 59  1  0
 30 60  1  0
 31 61  1  0
M  END
>  <smiles>
Cc1cn2c(c1-c1cccc(C(=O)NCC(=O)N3CCCCC3)c1)CCc1ccccc1-2

$$$$
