mol_2c5cdd48e759
     RDKit          3D

 48 50  0  0  0  0  0  0  0  0999 V2000
   -3.7764    2.2323    1.7291 C   0  0  0  0  0  0  0  0  0  0  0  0
   -3.7827    1.8406    0.2598 C   0  0  0  0  0  0  0  0  0  0  0  0
   -2.4100    1.3936   -0.2574 C   0  0  0  0  0  0  0  0  0  0  0  0
   -1.8137    0.1346    0.4313 C   0  0  0  0  0  0  0  0  0  0  0  0
   -2.7851   -1.0429    0.2790 C   0  0  0  0  0  0  0  0  0  0  0  0
   -2.0589   -2.3785    0.2950 C   0  0  0  0  0  0  0  0  0  0  0  0
   -1.4173   -2.7180    1.6492 C   0  0  0  0  0  0  0  0  0  0  0  0
   -3.0477   -3.4983   -0.0624 C   0  0  0  0  0  0  0  0  0  0  0  0
   -1.0929   -2.3537   -0.7616 O   0  0  0  0  0  0  0  0  0  0  0  0
   -0.1514   -1.3498   -0.6873 C   0  0  0  0  0  0  0  0  0  0  0  0
    1.0619   -1.5986   -1.1875 C   0  0  0  0  0  0  0  0  0  0  0  0
    2.1252   -0.6086   -1.0900 C   0  0  0  0  0  0  0  0  0  0  0  0
    3.3717   -0.8743   -1.6708 C   0  0  0  0  0  0  0  0  0  0  0  0
    4.4067    0.0583   -1.5743 C   0  0  0  0  0  0  0  0  0  0  0  0
    5.7097   -0.2720   -2.2011 C   0  0  0  0  0  0  0  0  0  0  0  0
    5.9740   -1.3057   -2.7862 O   0  0  0  0  0  0  0  0  0  0  0  0
    6.6164    0.7111   -2.0700 O   0  0  0  0  0  0  0  0  0  0  0  0
    4.1879    1.2640   -0.8993 C   0  0  0  0  0  0  0  0  0  0  0  0
    2.9386    1.5557   -0.3130 C   0  0  0  0  0  0  0  0  0  0  0  0
    2.7781    2.8894    0.3719 C   0  0  0  0  0  0  0  0  0  0  0  0
    2.6614    2.7045    1.7727 O   0  0  0  0  0  0  0  0  0  0  0  0
    1.9037    0.5948   -0.4019 C   0  0  0  0  0  0  0  0  0  0  0  0
    0.5518    0.7976    0.2145 C   0  0  0  0  0  0  0  0  0  0  0  0
    0.3579    1.7652    0.9499 O   0  0  0  0  0  0  0  0  0  0  0  0
   -0.4519   -0.1507   -0.0650 N   0  0  0  0  0  0  0  0  0  0  0  0
   -3.5848    1.3696    2.3737 H   0  0  0  0  0  0  0  0  0  0  0  0
   -3.0144    2.9919    1.9304 H   0  0  0  0  0  0  0  0  0  0  0  0
   -4.7498    2.6460    2.0115 H   0  0  0  0  0  0  0  0  0  0  0  0
   -4.1039    2.7086   -0.3291 H   0  0  0  0  0  0  0  0  0  0  0  0
   -4.5334    1.0612    0.0911 H   0  0  0  0  0  0  0  0  0  0  0  0
   -2.4903    1.2021   -1.3359 H   0  0  0  0  0  0  0  0  0  0  0  0
   -1.7272    2.2453   -0.1669 H   0  0  0  0  0  0  0  0  0  0  0  0
   -1.6964    0.3455    1.5021 H   0  0  0  0  0  0  0  0  0  0  0  0
   -3.3016   -0.9480   -0.6867 H   0  0  0  0  0  0  0  0  0  0  0  0
   -3.5583   -1.0017    1.0557 H   0  0  0  0  0  0  0  0  0  0  0  0
   -2.1750   -2.8046    2.4353 H   0  0  0  0  0  0  0  0  0  0  0  0
   -0.6886   -1.9677    1.9711 H   0  0  0  0  0  0  0  0  0  0  0  0
   -0.8707   -3.6663    1.5883 H   0  0  0  0  0  0  0  0  0  0  0  0
   -3.4916   -3.3309   -1.0507 H   0  0  0  0  0  0  0  0  0  0  0  0
   -3.8559   -3.5740    0.6724 H   0  0  0  0  0  0  0  0  0  0  0  0
   -2.5360   -4.4663   -0.1173 H   0  0  0  0  0  0  0  0  0  0  0  0
    1.2723   -2.5532   -1.6586 H   0  0  0  0  0  0  0  0  0  0  0  0
    3.5433   -1.8118   -2.1982 H   0  0  0  0  0  0  0  0  0  0  0  0
    7.4152    0.3603   -2.5174 H   0  0  0  0  0  0  0  0  0  0  0  0
    4.9970    1.9895   -0.8215 H   0  0  0  0  0  0  0  0  0  0  0  0
    1.9164    3.4419   -0.0189 H   0  0  0  0  0  0  0  0  0  0  0  0
    3.6533    3.5254    0.2002 H   0  0  0  0  0  0  0  0  0  0  0  0
    1.7237    2.4469    1.9083 H   0  0  0  0  0  0  0  0  0  0  0  0
  1  2  1  0
  2  3  1  0
  3  4  1  0
  4  5  1  0
  5  6  1  0
  6  7  1  0
  6  8  1  0
  6  9  1  0
  9 10  1  0
 10 11  2  0
 11 12  1  0
 12 13  1  0
 13 14  2  0
 14 15  1  0
 15 16  2  0
 15 17  1  0
 14 18  1  0
 18 19  2  0
 19 20  1  0
 20 21  1  0
 19 22  1  0
 22 23  1  0
 23 24  2  0
 23 25  1  0
 25  4  1  0
 25 10  1  0
 22 12  2  0
  1 26  1  0
  1 27  1  0
  1 28  1  0
  2 29  1  0
  2 30  1  0
  3 31  1  0
  3 32  1  0
  4 33  1  0
  5 34  1  0
  5 35  1  0
  7 36  1  0
  7 37  1  0
  7 38  1  0
  8 39  1  0
  8 40  1  0
  8 41  1  0
 11 42  1  0
 13 43  1  0
 17 44  1  0
 18 45  1  0
 20 46  1  0
 20 47  1  0
 21 48  1  0
M  END
>  <smiles>
CCCC1CC(C)(C)Oc2cc3cc(C(=O)O)cc(CO)c3c(=O)n21

$$$$
