mol_460c01897be9
     RDKit          3D

 51 54  0  0  0  0  0  0  0  0999 V2000
   -4.5075   -1.1459    0.3633 C   0  0  0  0  0  0  0  0  0  0  0  0
   -3.5464    0.0604    0.3577 C   0  0  0  0  0  0  0  0  0  0  0  0
   -4.3909    1.3015   -0.0338 C   0  0  0  0  0  0  0  0  0  0  0  0
   -3.0319    0.3083    1.7889 C   0  0  0  0  0  0  0  0  0  0  0  0
   -2.4094   -0.1212   -0.7099 C   0  0  0  0  0  0  0  0  0  0  0  0
   -1.2061    0.8390   -0.5421 C   0  0  0  0  0  0  0  0  0  0  0  0
   -0.3490    0.9321   -1.8183 C   0  0  0  0  0  0  0  0  0  0  0  0
    0.9690    1.6531   -1.6280 C   0  0  0  0  0  0  0  0  0  0  0  0
    1.1776    2.9077   -2.2198 C   0  0  0  0  0  0  0  0  0  0  0  0
    2.4174    3.5461   -2.1191 C   0  0  0  0  0  0  0  0  0  0  0  0
    3.4675    2.9361   -1.4334 C   0  0  0  0  0  0  0  0  0  0  0  0
    3.2658    1.6923   -0.8331 C   0  0  0  0  0  0  0  0  0  0  0  0
    2.0269    1.0605   -0.9143 C   0  0  0  0  0  0  0  0  0  0  0  0
    1.7707   -0.1530   -0.3312 O   0  0  0  0  0  0  0  0  0  0  0  0
    2.7113   -0.7292    0.4830 C   0  0  0  0  0  0  0  0  0  0  0  0
    2.3335   -1.8540    1.2355 C   0  0  0  0  0  0  0  0  0  0  0  0
    3.2750   -2.4775    2.0687 C   0  0  0  0  0  0  0  0  0  0  0  0
    4.5838   -1.9958    2.1429 C   0  0  0  0  0  0  0  0  0  0  0  0
    4.9512   -0.8663    1.4127 C   0  0  0  0  0  0  0  0  0  0  0  0
    4.0090   -0.2305    0.5977 C   0  0  0  0  0  0  0  0  0  0  0  0
    4.3531    1.0152   -0.1089 C   0  0  0  0  0  0  0  0  0  0  0  0
    5.4864    1.4760   -0.0772 O   0  0  0  0  0  0  0  0  0  0  0  0
    0.9260   -2.3464    1.2892 C   0  0  0  0  0  0  0  0  0  0  0  0
    0.4910   -2.8488    2.3194 O   0  0  0  0  0  0  0  0  0  0  0  0
    0.1601   -2.1769    0.1608 N   0  0  0  0  0  0  0  0  0  0  0  0
   -1.2746   -2.3620    0.1825 C   0  0  0  0  0  0  0  0  0  0  0  0
   -1.9121   -1.5629   -0.9457 C   0  0  0  0  0  0  0  0  0  0  0  0
   -1.8856   -2.0085   -2.1006 O   0  0  0  0  0  0  0  0  0  0  0  0
   -5.3778   -0.9547    1.0021 H   0  0  0  0  0  0  0  0  0  0  0  0
   -4.0276   -2.0516    0.7455 H   0  0  0  0  0  0  0  0  0  0  0  0
   -4.8805   -1.3584   -0.6450 H   0  0  0  0  0  0  0  0  0  0  0  0
   -5.2123    1.4614    0.6747 H   0  0  0  0  0  0  0  0  0  0  0  0
   -3.7881    2.2153   -0.0449 H   0  0  0  0  0  0  0  0  0  0  0  0
   -4.8361    1.1819   -1.0282 H   0  0  0  0  0  0  0  0  0  0  0  0
   -2.4458    1.2310    1.8558 H   0  0  0  0  0  0  0  0  0  0  0  0
   -3.8694    0.4147    2.4891 H   0  0  0  0  0  0  0  0  0  0  0  0
   -2.4101   -0.5055    2.1628 H   0  0  0  0  0  0  0  0  0  0  0  0
   -2.8766    0.1394   -1.6734 H   0  0  0  0  0  0  0  0  0  0  0  0
   -1.5560    1.8503   -0.3043 H   0  0  0  0  0  0  0  0  0  0  0  0
   -0.6003    0.5197    0.3121 H   0  0  0  0  0  0  0  0  0  0  0  0
   -0.1190   -0.0617   -2.2188 H   0  0  0  0  0  0  0  0  0  0  0  0
   -0.9349    1.4314   -2.6008 H   0  0  0  0  0  0  0  0  0  0  0  0
    0.3797    3.3923   -2.7798 H   0  0  0  0  0  0  0  0  0  0  0  0
    2.5685    4.5158   -2.5885 H   0  0  0  0  0  0  0  0  0  0  0  0
    4.4355    3.4283   -1.3677 H   0  0  0  0  0  0  0  0  0  0  0  0
    2.9839   -3.3354    2.6737 H   0  0  0  0  0  0  0  0  0  0  0  0
    5.3083   -2.4854    2.7903 H   0  0  0  0  0  0  0  0  0  0  0  0
    5.9622   -0.4710    1.4948 H   0  0  0  0  0  0  0  0  0  0  0  0
    0.5979   -1.8765   -0.7036 H   0  0  0  0  0  0  0  0  0  0  0  0
   -1.4785   -3.4243    0.0112 H   0  0  0  0  0  0  0  0  0  0  0  0
   -1.6846   -2.1065    1.1556 H   0  0  0  0  0  0  0  0  0  0  0  0
  1  2  1  0
  2  3  1  0
  2  4  1  0
  2  5  1  0
  5  6  1  0
  6  7  1  0
  7  8  1  0
  8  9  2  0
  9 10  1  0
 10 11  2  0
 11 12  1  0
 12 13  2  0
 13 14  1  0
 14 15  1  0
 15 16  1  0
 16 17  2  0
 17 18  1  0
 18 19  2  0
 19 20  1  0
 20 21  1  0
 21 22  2  0
 16 23  1  0
 23 24  2  0
 23 25  1  0
 25 26  1  0
 26 27  1  0
 27 28  2  0
 27  5  1  0
 13  8  1  0
 20 15  2  0
 21 12  1  0
  1 29  1  0
  1 30  1  0
  1 31  1  0
  3 32  1  0
  3 33  1  0
  3 34  1  0
  4 35  1  0
  4 36  1  0
  4 37  1  0
  5 38  1  0
  6 39  1  0
  6 40  1  0
  7 41  1  0
  7 42  1  0
  9 43  1  0
 10 44  1  0
 11 45  1  0
 17 46  1  0
 18 47  1  0
 19 48  1  0
 25 49  1  0
 26 50  1  0
 26 51  1  0
M  END
>  <smiles>
CC(C)(C)C1CCc2cccc3c2Oc2c(cccc2C3=O)C(=O)NCC1=O

$$$$
