mol_76d7a3ab9eb7
     RDKit          3D

 37 38  0  0  0  0  0  0  0  0999 V2000
   -2.3249    2.8531   -0.0363 O   0  0  0  0  0  0  0  0  0  0  0  0
   -2.6847    1.8163    0.4820 C   0  0  0  0  0  0  0  0  0  0  0  0
   -3.5917    1.7814    1.4740 O   0  0  0  0  0  0  0  0  0  0  0  0
   -2.1908    0.4558    0.1871 C   0  0  0  0  0  0  0  0  0  0  0  0
   -3.0494   -0.4880   -0.4215 C   0  0  0  0  0  0  0  0  0  0  0  0
   -4.4666   -0.1721   -0.8558 C   0  0  0  0  0  0  0  0  0  0  0  0
   -4.5825    0.2124   -2.3215 C   0  0  0  0  0  0  0  0  0  0  0  0
   -3.8400    1.2974   -2.6205 F   0  0  0  0  0  0  0  0  0  0  0  0
   -5.8693    0.5044   -2.6255 F   0  0  0  0  0  0  0  0  0  0  0  0
   -4.1999   -0.7976   -3.1340 F   0  0  0  0  0  0  0  0  0  0  0  0
   -2.5477   -1.7701   -0.6794 C   0  0  0  0  0  0  0  0  0  0  0  0
   -1.2354   -2.1037   -0.3450 C   0  0  0  0  0  0  0  0  0  0  0  0
   -0.3777   -1.1696    0.2515 C   0  0  0  0  0  0  0  0  0  0  0  0
    0.9426   -1.5326    0.5732 C   0  0  0  0  0  0  0  0  0  0  0  0
    1.8243   -0.6261    1.1754 C   0  0  0  0  0  0  0  0  0  0  0  0
    3.2432   -1.0182    1.4906 C   0  0  0  0  0  0  0  0  0  0  0  0
    4.1352   -0.5626    0.4509 N   0  0  0  0  0  0  0  0  0  0  0  0
    4.9591    0.5462    0.6041 C   0  0  0  0  0  0  0  0  0  0  0  0
    5.0063    1.1820    1.6584 O   0  0  0  0  0  0  0  0  0  0  0  0
    5.8014    0.8976   -0.6427 C   0  0  0  0  0  0  0  0  0  0  0  0
    7.1387    0.7870   -0.4159 F   0  0  0  0  0  0  0  0  0  0  0  0
    5.5788    2.1624   -1.0901 F   0  0  0  0  0  0  0  0  0  0  0  0
    5.5240    0.0652   -1.6911 F   0  0  0  0  0  0  0  0  0  0  0  0
    1.3746    0.6672    1.4439 C   0  0  0  0  0  0  0  0  0  0  0  0
    0.0658    1.0409    1.1278 C   0  0  0  0  0  0  0  0  0  0  0  0
   -0.8438    0.1374    0.5264 C   0  0  0  0  0  0  0  0  0  0  0  0
   -3.8099    2.7241    1.6335 H   0  0  0  0  0  0  0  0  0  0  0  0
   -4.9040    0.6203   -0.2426 H   0  0  0  0  0  0  0  0  0  0  0  0
   -5.0953   -1.0520   -0.6672 H   0  0  0  0  0  0  0  0  0  0  0  0
   -3.1724   -2.5248   -1.1560 H   0  0  0  0  0  0  0  0  0  0  0  0
   -0.8847   -3.1110   -0.5643 H   0  0  0  0  0  0  0  0  0  0  0  0
    1.2899   -2.5408    0.3515 H   0  0  0  0  0  0  0  0  0  0  0  0
    3.5393   -0.6180    2.4666 H   0  0  0  0  0  0  0  0  0  0  0  0
    3.3380   -2.1082    1.5463 H   0  0  0  0  0  0  0  0  0  0  0  0
    4.0984   -1.0182   -0.4554 H   0  0  0  0  0  0  0  0  0  0  0  0
    2.0427    1.3983    1.8979 H   0  0  0  0  0  0  0  0  0  0  0  0
   -0.2316    2.0641    1.3535 H   0  0  0  0  0  0  0  0  0  0  0  0
  1  2  2  0
  2  3  1  0
  2  4  1  0
  4  5  1  0
  5  6  1  0
  6  7  1  0
  7  8  1  0
  7  9  1  0
  7 10  1  0
  5 11  2  0
 11 12  1  0
 12 13  2  0
 13 14  1  0
 14 15  2  0
 15 16  1  0
 16 17  1  0
 17 18  1  0
 18 19  2  0
 18 20  1  0
 20 21  1  0
 20 22  1  0
 20 23  1  0
 15 24  1  0
 24 25  2  0
 25 26  1  0
 26  4  2  0
 26 13  1  0
  3 27  1  0
  6 28  1  0
  6 29  1  0
 11 30  1  0
 12 31  1  0
 14 32  1  0
 16 33  1  0
 16 34  1  0
 17 35  1  0
 24 36  1  0
 25 37  1  0
M  END
>  <smiles>
O=C(O)c1c(CC(F)(F)F)ccc2cc(CNC(=O)C(F)(F)F)ccc12

$$$$
