mol_05a3728861b8
     RDKit          3D

 50 53  0  0  0  0  0  0  0  0999 V2000
   -0.6862   -1.6123   -1.9945 C   0  0  0  0  0  0  0  0  0  0  0  0
    0.1885   -0.3911   -2.1432 C   0  0  0  0  0  0  0  0  0  0  0  0
    0.0166    0.3615   -3.3274 C   0  0  0  0  0  0  0  0  0  0  0  0
    0.8150    1.4542   -3.6185 C   0  0  0  0  0  0  0  0  0  0  0  0
    1.8274    1.8240   -2.7440 C   0  0  0  0  0  0  0  0  0  0  0  0
    2.0050    1.0945   -1.5525 C   0  0  0  0  0  0  0  0  0  0  0  0
    3.2163    1.3918   -0.3790 S   0  0  0  0  0  0  0  0  0  0  0  0
    2.7417    0.0597    0.5509 C   0  0  0  0  0  0  0  0  0  0  0  0
    1.5077   -0.4424    0.1792 C   0  0  0  0  0  0  0  0  0  0  0  0
    1.1864    0.0155   -1.1931 C   0  0  0  0  0  0  0  0  0  0  0  0
    0.5363   -1.2486    1.0328 C   0  0  0  0  0  0  0  0  0  0  0  0
   -0.6219   -0.3768    1.1965 N   0  0  0  0  0  0  0  0  0  0  0  0
   -1.9145   -0.8321    1.3042 C   0  0  0  0  0  0  0  0  0  0  0  0
   -2.2054   -2.0254    1.3267 O   0  0  0  0  0  0  0  0  0  0  0  0
   -2.9553    0.2727    1.5154 C   0  0  0  0  0  0  0  0  0  0  0  0
   -2.8549    1.3279    0.5140 N   0  0  0  0  0  0  0  0  0  0  0  0
   -3.5247    1.2570   -0.7577 C   0  0  0  0  0  0  0  0  0  0  0  0
   -3.3751    2.6645   -1.3041 C   0  0  0  0  0  0  0  0  0  0  0  0
   -2.0537    3.1492   -0.7179 C   0  0  0  0  0  0  0  0  0  0  0  0
   -1.9462    2.3688    0.5670 C   0  0  0  0  0  0  0  0  0  0  0  0
   -1.1331    2.5554    1.4578 O   0  0  0  0  0  0  0  0  0  0  0  0
    0.9902   -1.6649    2.4383 C   0  0  0  0  0  0  0  0  0  0  0  0
    1.9427   -2.8560    2.4616 C   0  0  0  0  0  0  0  0  0  0  0  0
    3.2186   -2.6507    1.6696 C   0  0  0  0  0  0  0  0  0  0  0  0
    3.9422   -1.4054    2.1197 C   0  0  0  0  0  0  0  0  0  0  0  0
    4.8034   -1.4593    3.0001 O   0  0  0  0  0  0  0  0  0  0  0  0
    3.6671   -0.2090    1.5276 N   0  0  0  0  0  0  0  0  0  0  0  0
   -1.0704   -1.9450   -2.9654 H   0  0  0  0  0  0  0  0  0  0  0  0
   -0.1123   -2.4507   -1.5917 H   0  0  0  0  0  0  0  0  0  0  0  0
   -1.5421   -1.3966   -1.3545 H   0  0  0  0  0  0  0  0  0  0  0  0
   -0.7468    0.0709   -4.0482 H   0  0  0  0  0  0  0  0  0  0  0  0
    0.6681    2.0080   -4.5424 H   0  0  0  0  0  0  0  0  0  0  0  0
    2.4760    2.6636   -2.9797 H   0  0  0  0  0  0  0  0  0  0  0  0
    0.2265   -2.1505    0.4986 H   0  0  0  0  0  0  0  0  0  0  0  0
   -0.4568    0.6205    1.3264 H   0  0  0  0  0  0  0  0  0  0  0  0
   -2.7785    0.7089    2.5046 H   0  0  0  0  0  0  0  0  0  0  0  0
   -3.9626   -0.1531    1.4843 H   0  0  0  0  0  0  0  0  0  0  0  0
   -3.0124    0.5227   -1.3858 H   0  0  0  0  0  0  0  0  0  0  0  0
   -4.5729    0.9735   -0.6293 H   0  0  0  0  0  0  0  0  0  0  0  0
   -4.1913    3.2959   -0.9311 H   0  0  0  0  0  0  0  0  0  0  0  0
   -3.3957    2.7007   -2.3969 H   0  0  0  0  0  0  0  0  0  0  0  0
   -1.2105    2.8842   -1.3624 H   0  0  0  0  0  0  0  0  0  0  0  0
   -2.0596    4.2246   -0.5263 H   0  0  0  0  0  0  0  0  0  0  0  0
    0.1111   -1.9612    3.0277 H   0  0  0  0  0  0  0  0  0  0  0  0
    1.4159   -0.8129    2.9831 H   0  0  0  0  0  0  0  0  0  0  0  0
    1.4266   -3.7456    2.0808 H   0  0  0  0  0  0  0  0  0  0  0  0
    2.1970   -3.0694    3.5076 H   0  0  0  0  0  0  0  0  0  0  0  0
    3.0341   -2.6308    0.5917 H   0  0  0  0  0  0  0  0  0  0  0  0
    3.8890   -3.5033    1.8351 H   0  0  0  0  0  0  0  0  0  0  0  0
    4.3336    0.5231    1.7443 H   0  0  0  0  0  0  0  0  0  0  0  0
  1  2  1  0
  2  3  1  0
  3  4  2  0
  4  5  1  0
  5  6  2  0
  6  7  1  0
  7  8  1  0
  8  9  2  0
  9 10  1  0
  9 11  1  0
 11 12  1  0
 12 13  1  0
 13 14  2  0
 13 15  1  0
 15 16  1  0
 16 17  1  0
 17 18  1  0
 18 19  1  0
 19 20  1  0
 20 21  2  0
 11 22  1  0
 22 23  1  0
 23 24  1  0
 24 25  1  0
 25 26  2  0
 25 27  1  0
 10  2  2  0
 20 16  1  0
 10  6  1  0
 27  8  1  0
  1 28  1  0
  1 29  1  0
  1 30  1  0
  3 31  1  0
  4 32  1  0
  5 33  1  0
 11 34  1  0
 12 35  1  0
 15 36  1  0
 15 37  1  0
 17 38  1  0
 17 39  1  0
 18 40  1  0
 18 41  1  0
 19 42  1  0
 19 43  1  0
 22 44  1  0
 22 45  1  0
 23 46  1  0
 23 47  1  0
 24 48  1  0
 24 49  1  0
 27 50  1  0
M  END
>  <smiles>
Cc1cccc2sc3c(c12)C(NC(=O)CN1CCCC1=O)CCCC(=O)N3

$$$$
