mol_1fae50448461
     RDKit          3D

 46 50  0  0  0  0  0  0  0  0999 V2000
    5.7518    1.5203   -0.6551 C   0  0  0  0  0  0  0  0  0  0  0  0
    4.7180    1.3383    0.4236 C   0  0  0  0  0  0  0  0  0  0  0  0
    4.6827    2.0485    1.4259 O   0  0  0  0  0  0  0  0  0  0  0  0
    3.7279    0.2542    0.2516 C   0  0  0  0  0  0  0  0  0  0  0  0
    4.1465   -1.0747    0.1312 C   0  0  0  0  0  0  0  0  0  0  0  0
    5.4800   -1.3763    0.1437 O   0  0  0  0  0  0  0  0  0  0  0  0
    3.2088   -2.1012    0.0186 C   0  0  0  0  0  0  0  0  0  0  0  0
    1.8405   -1.7982    0.0068 C   0  0  0  0  0  0  0  0  0  0  0  0
    1.4092   -0.4666    0.1233 C   0  0  0  0  0  0  0  0  0  0  0  0
    2.3614    0.5552    0.2591 C   0  0  0  0  0  0  0  0  0  0  0  0
    1.9695    1.8696    0.3109 O   0  0  0  0  0  0  0  0  0  0  0  0
    0.7005    2.0854    0.9498 C   0  0  0  0  0  0  0  0  0  0  0  0
   -0.3943    1.1585    0.4718 C   0  0  0  0  0  0  0  0  0  0  0  0
   -1.7535    1.4998    0.4871 C   0  0  0  0  0  0  0  0  0  0  0  0
   -2.1445    2.8279    0.9962 C   0  0  0  0  0  0  0  0  0  0  0  0
   -1.9459    3.8976    0.4602 O   0  0  0  0  0  0  0  0  0  0  0  0
   -2.7416    2.7045    2.1924 O   0  0  0  0  0  0  0  0  0  0  0  0
   -2.7413    0.6039    0.0193 C   0  0  0  0  0  0  0  0  0  0  0  0
   -2.3466   -0.6871   -0.4054 C   0  0  0  0  0  0  0  0  0  0  0  0
   -0.9872   -1.0793   -0.3240 C   0  0  0  0  0  0  0  0  0  0  0  0
   -0.0172   -0.1362    0.0885 C   0  0  0  0  0  0  0  0  0  0  0  0
   -0.4931   -2.4579   -0.7285 C   0  0  0  0  0  0  0  0  0  0  0  0
    0.8063   -2.8900   -0.0354 C   0  0  0  0  0  0  0  0  0  0  0  0
   -3.3970   -1.6069   -0.9643 C   0  0  0  0  0  0  0  0  0  0  0  0
   -3.1105   -2.6181   -1.5973 O   0  0  0  0  0  0  0  0  0  0  0  0
   -4.8420   -1.2530   -0.7163 C   0  0  0  0  0  0  0  0  0  0  0  0
   -5.0491    0.2267   -0.9494 C   0  0  0  0  0  0  0  0  0  0  0  0
   -4.1956    1.0270    0.0204 C   0  0  0  0  0  0  0  0  0  0  0  0
    6.7241    1.1807   -0.2896 H   0  0  0  0  0  0  0  0  0  0  0  0
    5.4884    0.9627   -1.5582 H   0  0  0  0  0  0  0  0  0  0  0  0
    5.8042    2.5800   -0.9205 H   0  0  0  0  0  0  0  0  0  0  0  0
    5.5954   -2.3416    0.1406 H   0  0  0  0  0  0  0  0  0  0  0  0
    3.5270   -3.1378   -0.0545 H   0  0  0  0  0  0  0  0  0  0  0  0
    0.4490    3.1279    0.7392 H   0  0  0  0  0  0  0  0  0  0  0  0
    0.8274    1.9834    2.0349 H   0  0  0  0  0  0  0  0  0  0  0  0
   -2.9357    3.6257    2.4679 H   0  0  0  0  0  0  0  0  0  0  0  0
   -1.2282   -3.2268   -0.4733 H   0  0  0  0  0  0  0  0  0  0  0  0
   -0.3486   -2.4587   -1.8161 H   0  0  0  0  0  0  0  0  0  0  0  0
    0.5891   -3.1810    1.0009 H   0  0  0  0  0  0  0  0  0  0  0  0
    1.2011   -3.7763   -0.5462 H   0  0  0  0  0  0  0  0  0  0  0  0
   -5.4665   -1.8210   -1.4148 H   0  0  0  0  0  0  0  0  0  0  0  0
   -5.1121   -1.5526    0.3020 H   0  0  0  0  0  0  0  0  0  0  0  0
   -4.7762    0.4834   -1.9813 H   0  0  0  0  0  0  0  0  0  0  0  0
   -6.1052    0.4872   -0.8183 H   0  0  0  0  0  0  0  0  0  0  0  0
   -4.5877    0.9091    1.0382 H   0  0  0  0  0  0  0  0  0  0  0  0
   -4.2890    2.0837   -0.2554 H   0  0  0  0  0  0  0  0  0  0  0  0
  1  2  1  0
  2  3  2  0
  2  4  1  0
  4  5  1  0
  5  6  1  0
  5  7  2  0
  7  8  1  0
  8  9  2  0
  9 10  1  0
 10 11  1  0
 11 12  1  0
 12 13  1  0
 13 14  1  0
 14 15  1  0
 15 16  2  0
 15 17  1  0
 14 18  2  0
 18 19  1  0
 19 20  2  0
 20 21  1  0
 20 22  1  0
 22 23  1  0
 19 24  1  0
 24 25  2  0
 24 26  1  0
 26 27  1  0
 27 28  1  0
 10  4  2  0
 21 13  2  0
 23  8  1  0
 21  9  1  0
 28 18  1  0
  1 29  1  0
  1 30  1  0
  1 31  1  0
  6 32  1  0
  7 33  1  0
 12 34  1  0
 12 35  1  0
 17 36  1  0
 22 37  1  0
 22 38  1  0
 23 39  1  0
 23 40  1  0
 26 41  1  0
 26 42  1  0
 27 43  1  0
 27 44  1  0
 28 45  1  0
 28 46  1  0
M  END
>  <smiles>
CC(=O)c1c(O)cc2c3c1OCc1c(C(=O)O)c4c(c(c1-3)CC2)C(=O)CCC4

$$$$
