mol_25502d67c8e7
     RDKit          3D

 58 62  0  0  0  0  0  0  0  0999 V2000
    0.1311   -4.0455    0.9866 C   0  0  0  0  0  0  0  0  0  0  0  0
    0.3243   -2.5509    1.0042 C   0  0  0  0  0  0  0  0  0  0  0  0
    1.5967   -2.0673    1.3522 C   0  0  0  0  0  0  0  0  0  0  0  0
    1.8615   -0.6983    1.3916 C   0  0  0  0  0  0  0  0  0  0  0  0
    3.2414   -0.1830    1.7340 C   0  0  0  0  0  0  0  0  0  0  0  0
    3.9629    0.2649    0.5442 N   0  0  0  0  0  0  0  0  0  0  0  0
    3.9835    1.6136    0.2372 C   0  0  0  0  0  0  0  0  0  0  0  0
    3.4603    2.4641    0.9594 O   0  0  0  0  0  0  0  0  0  0  0  0
    4.5929    2.0354   -1.0865 C   0  0  0  0  0  0  0  0  0  0  0  0
    5.5777    1.0474   -1.6789 C   0  0  0  0  0  0  0  0  0  0  0  0
    4.9695   -0.3437   -1.6537 C   0  0  0  0  0  0  0  0  0  0  0  0
    4.6644   -0.7433   -0.2181 C   0  0  0  0  0  0  0  0  0  0  0  0
    5.8755   -0.9928    0.4702 O   0  0  0  0  0  0  0  0  0  0  0  0
    0.8276    0.1975    1.0883 C   0  0  0  0  0  0  0  0  0  0  0  0
   -0.4657   -0.2418    0.7498 C   0  0  0  0  0  0  0  0  0  0  0  0
   -1.5528    0.7237    0.4489 C   0  0  0  0  0  0  0  0  0  0  0  0
   -2.7528    0.2674    0.0257 C   0  0  0  0  0  0  0  0  0  0  0  0
   -3.0088   -1.1018   -0.0021 N   0  0  0  0  0  0  0  0  0  0  0  0
   -2.0609   -2.0790    0.2500 C   0  0  0  0  0  0  0  0  0  0  0  0
   -2.2822   -3.2733    0.0548 O   0  0  0  0  0  0  0  0  0  0  0  0
   -0.7046   -1.6270    0.6844 C   0  0  0  0  0  0  0  0  0  0  0  0
   -4.2927   -1.5761   -0.1783 C   0  0  0  0  0  0  0  0  0  0  0  0
   -5.0692   -1.8298    0.7413 O   0  0  0  0  0  0  0  0  0  0  0  0
   -4.7280   -1.5812   -1.6193 C   0  0  0  0  0  0  0  0  0  0  0  0
   -5.3889   -0.2528   -1.9392 C   0  0  0  0  0  0  0  0  0  0  0  0
   -4.4416    0.9421   -1.8184 C   0  0  0  0  0  0  0  0  0  0  0  0
   -3.8930    1.2165   -0.3911 C   0  0  0  0  0  0  0  0  0  0  0  0
   -3.4797    2.7051   -0.3644 C   0  0  0  0  0  0  0  0  0  0  0  0
   -2.5746    3.0172    0.8076 C   0  0  0  0  0  0  0  0  0  0  0  0
   -1.2962    2.1947    0.6987 C   0  0  0  0  0  0  0  0  0  0  0  0
   -0.0528   -4.3968   -0.0333 H   0  0  0  0  0  0  0  0  0  0  0  0
    1.0226   -4.5695    1.3496 H   0  0  0  0  0  0  0  0  0  0  0  0
   -0.6911   -4.3363    1.6479 H   0  0  0  0  0  0  0  0  0  0  0  0
    2.3932   -2.7717    1.5908 H   0  0  0  0  0  0  0  0  0  0  0  0
    3.8341   -0.9561    2.2380 H   0  0  0  0  0  0  0  0  0  0  0  0
    3.1411    0.6369    2.4552 H   0  0  0  0  0  0  0  0  0  0  0  0
    3.7604    2.1906   -1.7837 H   0  0  0  0  0  0  0  0  0  0  0  0
    5.0896    3.0018   -0.9443 H   0  0  0  0  0  0  0  0  0  0  0  0
    5.8199    1.3349   -2.7079 H   0  0  0  0  0  0  0  0  0  0  0  0
    6.5157    1.0642   -1.1112 H   0  0  0  0  0  0  0  0  0  0  0  0
    4.0480   -0.3522   -2.2485 H   0  0  0  0  0  0  0  0  0  0  0  0
    5.6694   -1.0551   -2.1066 H   0  0  0  0  0  0  0  0  0  0  0  0
    4.0853   -1.6719   -0.2258 H   0  0  0  0  0  0  0  0  0  0  0  0
    6.0524   -0.1856    0.9809 H   0  0  0  0  0  0  0  0  0  0  0  0
    1.0661    1.2596    1.1167 H   0  0  0  0  0  0  0  0  0  0  0  0
   -5.4313   -2.4081   -1.7646 H   0  0  0  0  0  0  0  0  0  0  0  0
   -3.8704   -1.7605   -2.2776 H   0  0  0  0  0  0  0  0  0  0  0  0
   -5.7753   -0.2914   -2.9648 H   0  0  0  0  0  0  0  0  0  0  0  0
   -6.2536   -0.0943   -1.2825 H   0  0  0  0  0  0  0  0  0  0  0  0
   -3.6064    0.8195   -2.5207 H   0  0  0  0  0  0  0  0  0  0  0  0
   -5.0044    1.8208   -2.1613 H   0  0  0  0  0  0  0  0  0  0  0  0
   -4.7075    1.0996    0.3374 H   0  0  0  0  0  0  0  0  0  0  0  0
   -2.9619    2.9759   -1.2948 H   0  0  0  0  0  0  0  0  0  0  0  0
   -4.3780    3.3328   -0.3132 H   0  0  0  0  0  0  0  0  0  0  0  0
   -2.3271    4.0846    0.8211 H   0  0  0  0  0  0  0  0  0  0  0  0
   -3.0904    2.7946    1.7501 H   0  0  0  0  0  0  0  0  0  0  0  0
   -0.7568    2.3402    1.6422 H   0  0  0  0  0  0  0  0  0  0  0  0
   -0.6687    2.5914   -0.1094 H   0  0  0  0  0  0  0  0  0  0  0  0
  1  2  1  0
  2  3  1  0
  3  4  2  0
  4  5  1  0
  5  6  1  0
  6  7  1  0
  7  8  2  0
  7  9  1  0
  9 10  1  0
 10 11  1  0
 11 12  1  0
 12 13  1  0
  4 14  1  0
 14 15  2  0
 15 16  1  0
 16 17  2  0
 17 18  1  0
 18 19  1  0
 19 20  2  0
 19 21  1  0
 18 22  1  0
 22 23  2  0
 22 24  1  0
 24 25  1  0
 25 26  1  0
 26 27  1  0
 27 28  1  0
 28 29  1  0
 29 30  1  0
 21  2  2  0
 12  6  1  0
 21 15  1  0
 30 16  1  0
 27 17  1  0
  1 31  1  0
  1 32  1  0
  1 33  1  0
  3 34  1  0
  5 35  1  0
  5 36  1  0
  9 37  1  0
  9 38  1  0
 10 39  1  0
 10 40  1  0
 11 41  1  0
 11 42  1  0
 12 43  1  0
 13 44  1  0
 14 45  1  0
 24 46  1  0
 24 47  1  0
 25 48  1  0
 25 49  1  0
 26 50  1  0
 26 51  1  0
 27 52  1  0
 28 53  1  0
 28 54  1  0
 29 55  1  0
 29 56  1  0
 30 57  1  0
 30 58  1  0
M  END
>  <smiles>
Cc1cc(CN2C(=O)CCCC2O)cc2c3c4n(c(=O)c12)C(=O)CCCC4CCC3

$$$$
