mol_c0bc5b542ca6
     RDKit          3D

 35 37  0  0  0  0  0  0  0  0999 V2000
    1.0133    0.7751    0.8569 O   0  0  0  0  0  0  0  0  0  0  0  0
    1.0825   -0.3238    0.3253 C   0  0  0  0  0  0  0  0  0  0  0  0
    0.0099   -1.1602    0.0880 N   0  0  0  0  0  0  0  0  0  0  0  0
   -1.3295   -0.7807    0.5089 C   0  0  0  0  0  0  0  0  0  0  0  0
   -1.9726    0.2344   -0.4411 C   0  0  0  0  0  0  0  0  0  0  0  0
   -3.4352    0.4441   -0.1456 C   0  0  0  0  0  0  0  0  0  0  0  0
   -4.4221   -0.0501   -1.0095 C   0  0  0  0  0  0  0  0  0  0  0  0
   -5.7759    0.1454   -0.7217 C   0  0  0  0  0  0  0  0  0  0  0  0
   -6.1578    0.8346    0.4297 C   0  0  0  0  0  0  0  0  0  0  0  0
   -5.1848    1.3296    1.2952 C   0  0  0  0  0  0  0  0  0  0  0  0
   -3.8386    1.1321    1.0030 C   0  0  0  0  0  0  0  0  0  0  0  0
   -2.9178    1.6110    1.8508 F   0  0  0  0  0  0  0  0  0  0  0  0
    2.3265   -0.8286   -0.1134 N   0  0  0  0  0  0  0  0  0  0  0  0
    2.5994   -2.0505   -0.6982 C   0  0  0  0  0  0  0  0  0  0  0  0
    3.8661   -2.2137   -1.0015 N   0  0  0  0  0  0  0  0  0  0  0  0
    4.4751   -1.0602   -0.5957 C   0  0  0  0  0  0  0  0  0  0  0  0
    5.8298   -0.7024   -0.6777 C   0  0  0  0  0  0  0  0  0  0  0  0
    6.2325    0.5457   -0.1917 C   0  0  0  0  0  0  0  0  0  0  0  0
    5.3035    1.4223    0.3658 C   0  0  0  0  0  0  0  0  0  0  0  0
    3.9486    1.0821    0.4551 C   0  0  0  0  0  0  0  0  0  0  0  0
    3.5569   -0.1744   -0.0362 C   0  0  0  0  0  0  0  0  0  0  0  0
    0.1006   -2.0521   -0.3720 H   0  0  0  0  0  0  0  0  0  0  0  0
   -1.9196   -1.7037    0.5440 H   0  0  0  0  0  0  0  0  0  0  0  0
   -1.2755   -0.3820    1.5285 H   0  0  0  0  0  0  0  0  0  0  0  0
   -1.4517    1.1984   -0.3853 H   0  0  0  0  0  0  0  0  0  0  0  0
   -1.8506   -0.1060   -1.4777 H   0  0  0  0  0  0  0  0  0  0  0  0
   -4.1465   -0.5876   -1.9142 H   0  0  0  0  0  0  0  0  0  0  0  0
   -6.5350   -0.2390   -1.3992 H   0  0  0  0  0  0  0  0  0  0  0  0
   -7.2112    0.9868    0.6503 H   0  0  0  0  0  0  0  0  0  0  0  0
   -5.4641    1.8689    2.1947 H   0  0  0  0  0  0  0  0  0  0  0  0
    1.8477   -2.8023   -0.8852 H   0  0  0  0  0  0  0  0  0  0  0  0
    6.5465   -1.3906   -1.1126 H   0  0  0  0  0  0  0  0  0  0  0  0
    7.2798    0.8321   -0.2500 H   0  0  0  0  0  0  0  0  0  0  0  0
    5.6342    2.3895    0.7395 H   0  0  0  0  0  0  0  0  0  0  0  0
    3.2354    1.7755    0.8919 H   0  0  0  0  0  0  0  0  0  0  0  0
  1  2  2  0
  2  3  1  0
  3  4  1  0
  4  5  1  0
  5  6  1  0
  6  7  2  0
  7  8  1  0
  8  9  2  0
  9 10  1  0
 10 11  2  0
 11 12  1  0
  2 13  1  0
 13 14  1  0
 14 15  2  0
 15 16  1  0
 16 17  2  0
 17 18  1  0
 18 19  2  0
 19 20  1  0
 20 21  2  0
 11  6  1  0
 21 13  1  0
 21 16  1  0
  3 22  1  0
  4 23  1  0
  4 24  1  0
  5 25  1  0
  5 26  1  0
  7 27  1  0
  8 28  1  0
  9 29  1  0
 10 30  1  0
 14 31  1  0
 17 32  1  0
 18 33  1  0
 19 34  1  0
 20 35  1  0
M  END
>  <smiles>
O=C(NCCc1ccccc1F)n1cnc2ccccc21

$$$$
