mol_1d615dafc293
     RDKit          3D

 51 54  0  0  0  0  0  0  0  0999 V2000
   -3.8320    2.0793    0.0266 C   0  0  0  0  0  0  0  0  0  0  0  0
   -2.3402    2.1769   -0.2659 C   0  0  0  0  0  0  0  0  0  0  0  0
   -1.7897    1.1815   -1.3111 C   0  0  0  0  0  0  0  0  0  0  0  0
   -2.4328    1.3726   -2.6928 C   0  0  0  0  0  0  0  0  0  0  0  0
   -1.8088   -0.2628   -0.8049 C   0  0  0  0  0  0  0  0  0  0  0  0
   -2.9466   -1.0663   -1.0182 C   0  0  0  0  0  0  0  0  0  0  0  0
   -3.0219   -2.3805   -0.5443 C   0  0  0  0  0  0  0  0  0  0  0  0
   -4.2356   -3.2185   -0.8184 C   0  0  0  0  0  0  0  0  0  0  0  0
   -1.9324   -2.9147    0.1436 C   0  0  0  0  0  0  0  0  0  0  0  0
   -0.7884   -2.1428    0.3791 C   0  0  0  0  0  0  0  0  0  0  0  0
   -0.7118   -0.8187   -0.0906 C   0  0  0  0  0  0  0  0  0  0  0  0
    0.5484   -0.0127    0.1724 C   0  0  0  0  0  0  0  0  0  0  0  0
    1.6193   -0.7303    0.8870 N   0  0  0  0  0  0  0  0  0  0  0  0
    1.4404   -2.0178    1.3637 C   0  0  0  0  0  0  0  0  0  0  0  0
    0.3204   -2.7206    1.1385 C   0  0  0  0  0  0  0  0  0  0  0  0
    2.4121   -2.6019    2.1275 N   0  0  0  0  0  0  0  0  0  0  0  0
    3.6376   -2.0522    2.3710 C   0  0  0  0  0  0  0  0  0  0  0  0
    4.4397   -2.5963    3.1278 O   0  0  0  0  0  0  0  0  0  0  0  0
    3.9838   -0.8197    1.5852 C   0  0  0  0  0  0  0  0  0  0  0  0
    2.7499    0.0644    1.4104 C   0  0  0  0  0  0  0  0  0  0  0  0
    3.0919    1.2744    0.5519 C   0  0  0  0  0  0  0  0  0  0  0  0
    3.5691    1.1415   -0.7589 C   0  0  0  0  0  0  0  0  0  0  0  0
    3.8497    2.2855   -1.4890 C   0  0  0  0  0  0  0  0  0  0  0  0
    3.6908    3.5372   -1.0115 N   0  0  0  0  0  0  0  0  0  0  0  0
    3.2330    3.6506    0.2523 C   0  0  0  0  0  0  0  0  0  0  0  0
    2.9228    2.5678    1.0608 C   0  0  0  0  0  0  0  0  0  0  0  0
   -4.4333    2.2415   -0.8720 H   0  0  0  0  0  0  0  0  0  0  0  0
   -4.1162    2.8469    0.7543 H   0  0  0  0  0  0  0  0  0  0  0  0
   -4.0969    1.1094    0.4561 H   0  0  0  0  0  0  0  0  0  0  0  0
   -2.1295    3.1967   -0.6129 H   0  0  0  0  0  0  0  0  0  0  0  0
   -1.7975    2.0581    0.6797 H   0  0  0  0  0  0  0  0  0  0  0  0
   -0.7420    1.4608   -1.4728 H   0  0  0  0  0  0  0  0  0  0  0  0
   -1.9836    0.6931   -3.4258 H   0  0  0  0  0  0  0  0  0  0  0  0
   -3.5116    1.1934   -2.6927 H   0  0  0  0  0  0  0  0  0  0  0  0
   -2.2728    2.3969   -3.0477 H   0  0  0  0  0  0  0  0  0  0  0  0
   -3.8058   -0.6653   -1.5518 H   0  0  0  0  0  0  0  0  0  0  0  0
   -5.1395   -2.6008   -0.8406 H   0  0  0  0  0  0  0  0  0  0  0  0
   -4.1293   -3.7265   -1.7818 H   0  0  0  0  0  0  0  0  0  0  0  0
   -4.3772   -3.9713   -0.0357 H   0  0  0  0  0  0  0  0  0  0  0  0
   -1.9803   -3.9402    0.5037 H   0  0  0  0  0  0  0  0  0  0  0  0
    0.2692    0.8727    0.7547 H   0  0  0  0  0  0  0  0  0  0  0  0
    0.9407    0.2951   -0.8018 H   0  0  0  0  0  0  0  0  0  0  0  0
    0.1926   -3.7262    1.5233 H   0  0  0  0  0  0  0  0  0  0  0  0
    2.2405   -3.4930    2.5742 H   0  0  0  0  0  0  0  0  0  0  0  0
    4.7754   -0.2733    2.1114 H   0  0  0  0  0  0  0  0  0  0  0  0
    4.3906   -1.1600    0.6254 H   0  0  0  0  0  0  0  0  0  0  0  0
    2.4477    0.4216    2.4056 H   0  0  0  0  0  0  0  0  0  0  0  0
    3.7027    0.1652   -1.2147 H   0  0  0  0  0  0  0  0  0  0  0  0
    4.2167    2.2217   -2.5095 H   0  0  0  0  0  0  0  0  0  0  0  0
    3.1163    4.6692    0.6119 H   0  0  0  0  0  0  0  0  0  0  0  0
    2.5546    2.7387    2.0674 H   0  0  0  0  0  0  0  0  0  0  0  0
  1  2  1  0
  2  3  1  0
  3  4  1  0
  3  5  1  0
  5  6  1  0
  6  7  2  0
  7  8  1  0
  7  9  1  0
  9 10  2  0
 10 11  1  0
 11 12  1  0
 12 13  1  0
 13 14  1  0
 14 15  2  0
 14 16  1  0
 16 17  1  0
 17 18  2  0
 17 19  1  0
 19 20  1  0
 20 21  1  0
 21 22  2  0
 22 23  1  0
 23 24  2  0
 24 25  1  0
 25 26  2  0
 11  5  2  0
 20 13  1  0
 26 21  1  0
 15 10  1  0
  1 27  1  0
  1 28  1  0
  1 29  1  0
  2 30  1  0
  2 31  1  0
  3 32  1  0
  4 33  1  0
  4 34  1  0
  4 35  1  0
  6 36  1  0
  8 37  1  0
  8 38  1  0
  8 39  1  0
  9 40  1  0
 12 41  1  0
 12 42  1  0
 15 43  1  0
 16 44  1  0
 19 45  1  0
 19 46  1  0
 20 47  1  0
 22 48  1  0
 23 49  1  0
 25 50  1  0
 26 51  1  0
M  END
>  <smiles>
CCC(C)c1cc(C)cc2c1CN1C(=C2)NC(=O)CC1c1ccncc1

$$$$
