mol_1c10f334ce50
     RDKit          3D

 46 48  0  0  0  0  0  0  0  0999 V2000
   -3.0020   -1.4791   -2.0390 C   0  0  0  0  0  0  0  0  0  0  0  0
   -2.1061   -0.3523   -1.5163 C   0  0  0  0  0  0  0  0  0  0  0  0
   -0.6694   -0.8683   -1.3525 C   0  0  0  0  0  0  0  0  0  0  0  0
    0.1559   -0.6469   -2.2484 O   0  0  0  0  0  0  0  0  0  0  0  0
   -0.2792   -1.5662   -0.2335 N   0  0  0  0  0  0  0  0  0  0  0  0
   -1.1238   -2.0474    0.8469 C   0  0  0  0  0  0  0  0  0  0  0  0
   -0.5054   -3.3861    1.2024 C   0  0  0  0  0  0  0  0  0  0  0  0
    0.9849   -3.1126    1.0684 C   0  0  0  0  0  0  0  0  0  0  0  0
    1.0924   -2.0978   -0.0857 C   0  0  0  0  0  0  0  0  0  0  0  0
    2.1900   -1.0368    0.2235 C   0  0  0  0  0  0  0  0  0  0  0  0
    3.0485   -1.2375    1.0822 O   0  0  0  0  0  0  0  0  0  0  0  0
    2.1921    0.0445   -0.6357 N   0  0  0  0  0  0  0  0  0  0  0  0
    3.0211    1.1860   -0.5998 C   0  0  0  0  0  0  0  0  0  0  0  0
    3.9864    1.4273    0.3779 C   0  0  0  0  0  0  0  0  0  0  0  0
    4.7490    2.5942    0.3232 C   0  0  0  0  0  0  0  0  0  0  0  0
    5.6739    2.8193    1.2657 F   0  0  0  0  0  0  0  0  0  0  0  0
    4.5697    3.5344   -0.6872 C   0  0  0  0  0  0  0  0  0  0  0  0
    3.6058    3.3074   -1.6645 C   0  0  0  0  0  0  0  0  0  0  0  0
    2.8427    2.1423   -1.6118 C   0  0  0  0  0  0  0  0  0  0  0  0
    1.9091    1.9452   -2.5554 F   0  0  0  0  0  0  0  0  0  0  0  0
   -2.6148    0.4602   -0.3323 C   0  0  0  0  0  0  0  0  0  0  0  0
   -3.8448    0.2082    0.2943 C   0  0  0  0  0  0  0  0  0  0  0  0
   -4.2698    0.9859    1.3749 C   0  0  0  0  0  0  0  0  0  0  0  0
   -3.4788    2.0333    1.8395 C   0  0  0  0  0  0  0  0  0  0  0  0
   -2.2641    2.3103    1.2199 C   0  0  0  0  0  0  0  0  0  0  0  0
   -1.8386    1.5353    0.1398 C   0  0  0  0  0  0  0  0  0  0  0  0
   -2.5367   -1.9727   -2.8999 H   0  0  0  0  0  0  0  0  0  0  0  0
   -3.1935   -2.2534   -1.2917 H   0  0  0  0  0  0  0  0  0  0  0  0
   -3.9705   -1.0867   -2.3683 H   0  0  0  0  0  0  0  0  0  0  0  0
   -2.0553    0.3766   -2.3405 H   0  0  0  0  0  0  0  0  0  0  0  0
   -2.1700   -2.1523    0.5689 H   0  0  0  0  0  0  0  0  0  0  0  0
   -1.0385   -1.3399    1.6791 H   0  0  0  0  0  0  0  0  0  0  0  0
   -0.8087   -4.1489    0.4751 H   0  0  0  0  0  0  0  0  0  0  0  0
   -0.7869   -3.7304    2.2012 H   0  0  0  0  0  0  0  0  0  0  0  0
    1.3527   -2.7005    2.0155 H   0  0  0  0  0  0  0  0  0  0  0  0
    1.5547   -4.0246    0.8639 H   0  0  0  0  0  0  0  0  0  0  0  0
    1.3665   -2.6002   -1.0215 H   0  0  0  0  0  0  0  0  0  0  0  0
    1.5342    0.0040   -1.4198 H   0  0  0  0  0  0  0  0  0  0  0  0
    4.1748    0.7392    1.1937 H   0  0  0  0  0  0  0  0  0  0  0  0
    5.1794    4.4322   -0.7016 H   0  0  0  0  0  0  0  0  0  0  0  0
    3.4407    4.0234   -2.4630 H   0  0  0  0  0  0  0  0  0  0  0  0
   -4.4950   -0.5955   -0.0415 H   0  0  0  0  0  0  0  0  0  0  0  0
   -5.2239    0.7758    1.8520 H   0  0  0  0  0  0  0  0  0  0  0  0
   -3.8123    2.6380    2.6786 H   0  0  0  0  0  0  0  0  0  0  0  0
   -1.6476    3.1329    1.5735 H   0  0  0  0  0  0  0  0  0  0  0  0
   -0.8887    1.7804   -0.3340 H   0  0  0  0  0  0  0  0  0  0  0  0
  1  2  1  0
  2  3  1  0
  3  4  2  0
  3  5  1  0
  5  6  1  0
  6  7  1  0
  7  8  1  0
  8  9  1  0
  9 10  1  0
 10 11  2  0
 10 12  1  0
 12 13  1  0
 13 14  1  0
 14 15  2  0
 15 16  1  0
 15 17  1  0
 17 18  2  0
 18 19  1  0
 19 20  1  0
  2 21  1  0
 21 22  2  0
 22 23  1  0
 23 24  2  0
 24 25  1  0
 25 26  2  0
  9  5  1  0
 19 13  2  0
 26 21  1  0
  1 27  1  0
  1 28  1  0
  1 29  1  0
  2 30  1  0
  6 31  1  0
  6 32  1  0
  7 33  1  0
  7 34  1  0
  8 35  1  0
  8 36  1  0
  9 37  1  0
 12 38  1  0
 14 39  1  0
 17 40  1  0
 18 41  1  0
 22 42  1  0
 23 43  1  0
 24 44  1  0
 25 45  1  0
 26 46  1  0
M  END
>  <smiles>
CC(C(=O)N1CCCC1C(=O)Nc1cc(F)ccc1F)c1ccccc1

$$$$
