mol_a4122c8d24c9
     RDKit          3D

 50 51  0  0  0  0  0  0  0  0999 V2000
   -2.3011    2.8362    2.0031 C   0  0  0  0  0  0  0  0  0  0  0  0
   -2.2199    1.6165    1.1325 C   0  0  0  0  0  0  0  0  0  0  0  0
   -0.9937    1.1995    0.6078 C   0  0  0  0  0  0  0  0  0  0  0  0
   -0.9350    0.0779   -0.2248 C   0  0  0  0  0  0  0  0  0  0  0  0
    0.3526   -0.4048   -0.7963 C   0  0  0  0  0  0  0  0  0  0  0  0
    0.5236   -1.6009   -1.0013 O   0  0  0  0  0  0  0  0  0  0  0  0
    1.2879    0.5653   -1.0908 N   0  0  0  0  0  0  0  0  0  0  0  0
    2.5939    0.2428   -1.6317 C   0  0  0  0  0  0  0  0  0  0  0  0
    3.7081    0.4067   -0.5867 C   0  0  0  0  0  0  0  0  0  0  0  0
    3.6170   -0.6308    0.5392 C   0  0  0  0  0  0  0  0  0  0  0  0
    4.6737   -0.3952    1.6230 C   0  0  0  0  0  0  0  0  0  0  0  0
    5.9379    0.2941    1.1103 C   0  0  0  0  0  0  0  0  0  0  0  0
    6.2272   -0.0704   -0.3376 C   0  0  0  0  0  0  0  0  0  0  0  0
    5.0869    0.3388   -1.2732 C   0  0  0  0  0  0  0  0  0  0  0  0
   -2.1043   -0.6402   -0.5205 C   0  0  0  0  0  0  0  0  0  0  0  0
   -3.3552   -0.2381   -0.0233 C   0  0  0  0  0  0  0  0  0  0  0  0
   -4.6570   -0.9955   -0.3414 C   0  0  0  0  0  0  0  0  0  0  0  0
   -4.4573   -2.2292   -1.2507 C   0  0  0  0  0  0  0  0  0  0  0  0
   -5.3004   -1.4955    0.9701 C   0  0  0  0  0  0  0  0  0  0  0  0
   -5.6427   -0.0518   -1.0637 C   0  0  0  0  0  0  0  0  0  0  0  0
   -3.3847    0.9078    0.7984 C   0  0  0  0  0  0  0  0  0  0  0  0
   -3.1024    2.7348    2.7426 H   0  0  0  0  0  0  0  0  0  0  0  0
   -2.4945    3.7212    1.3891 H   0  0  0  0  0  0  0  0  0  0  0  0
   -1.3676    2.9864    2.5555 H   0  0  0  0  0  0  0  0  0  0  0  0
   -0.0878    1.7345    0.8782 H   0  0  0  0  0  0  0  0  0  0  0  0
    1.0440    1.5408   -0.9945 H   0  0  0  0  0  0  0  0  0  0  0  0
    2.7573    0.9385   -2.4626 H   0  0  0  0  0  0  0  0  0  0  0  0
    2.5933   -0.7721   -2.0443 H   0  0  0  0  0  0  0  0  0  0  0  0
    3.6033    1.4024   -0.1324 H   0  0  0  0  0  0  0  0  0  0  0  0
    2.6276   -0.6228    1.0096 H   0  0  0  0  0  0  0  0  0  0  0  0
    3.7512   -1.6357    0.1178 H   0  0  0  0  0  0  0  0  0  0  0  0
    4.9338   -1.3607    2.0740 H   0  0  0  0  0  0  0  0  0  0  0  0
    4.2469    0.2124    2.4303 H   0  0  0  0  0  0  0  0  0  0  0  0
    6.7877    0.0252    1.7479 H   0  0  0  0  0  0  0  0  0  0  0  0
    5.8192    1.3820    1.1915 H   0  0  0  0  0  0  0  0  0  0  0  0
    7.1606    0.3985   -0.6688 H   0  0  0  0  0  0  0  0  0  0  0  0
    6.3815   -1.1546   -0.4094 H   0  0  0  0  0  0  0  0  0  0  0  0
    5.0680   -0.3614   -2.1181 H   0  0  0  0  0  0  0  0  0  0  0  0
    5.3069    1.3242   -1.7036 H   0  0  0  0  0  0  0  0  0  0  0  0
   -2.0073   -1.5181   -1.1553 H   0  0  0  0  0  0  0  0  0  0  0  0
   -3.7929   -2.9683   -0.7881 H   0  0  0  0  0  0  0  0  0  0  0  0
   -5.4111   -2.7331   -1.4480 H   0  0  0  0  0  0  0  0  0  0  0  0
   -4.0341   -1.9499   -2.2227 H   0  0  0  0  0  0  0  0  0  0  0  0
   -5.5814   -0.6714    1.6349 H   0  0  0  0  0  0  0  0  0  0  0  0
   -4.6125   -2.1452    1.5241 H   0  0  0  0  0  0  0  0  0  0  0  0
   -6.2124   -2.0697    0.7691 H   0  0  0  0  0  0  0  0  0  0  0  0
   -5.9307    0.8026   -0.4415 H   0  0  0  0  0  0  0  0  0  0  0  0
   -5.2034    0.3462   -1.9862 H   0  0  0  0  0  0  0  0  0  0  0  0
   -6.5666   -0.5767   -1.3337 H   0  0  0  0  0  0  0  0  0  0  0  0
   -4.3342    1.2571    1.2019 H   0  0  0  0  0  0  0  0  0  0  0  0
  1  2  1  0
  2  3  1  0
  3  4  2  0
  4  5  1  0
  5  6  2  0
  5  7  1  0
  7  8  1  0
  8  9  1  0
  9 10  1  0
 10 11  1  0
 11 12  1  0
 12 13  1  0
 13 14  1  0
  4 15  1  0
 15 16  2  0
 16 17  1  0
 17 18  1  0
 17 19  1  0
 17 20  1  0
 16 21  1  0
 21  2  2  0
 14  9  1  0
  1 22  1  0
  1 23  1  0
  1 24  1  0
  3 25  1  0
  7 26  1  0
  8 27  1  0
  8 28  1  0
  9 29  1  0
 10 30  1  0
 10 31  1  0
 11 32  1  0
 11 33  1  0
 12 34  1  0
 12 35  1  0
 13 36  1  0
 13 37  1  0
 14 38  1  0
 14 39  1  0
 15 40  1  0
 18 41  1  0
 18 42  1  0
 18 43  1  0
 19 44  1  0
 19 45  1  0
 19 46  1  0
 20 47  1  0
 20 48  1  0
 20 49  1  0
 21 50  1  0
M  END
>  <smiles>
Cc1cc(C(=O)NCC2CCCCC2)cc(C(C)(C)C)c1

$$$$
