mol_8fa1e21ce92f
     RDKit          3D

 53 55  0  0  0  0  0  0  0  0999 V2000
   -2.4986   -2.9369    1.6082 C   0  0  0  0  0  0  0  0  0  0  0  0
   -2.8055   -1.5092    2.0519 C   0  0  0  0  0  0  0  0  0  0  0  0
   -2.1620   -1.2084    3.4014 C   0  0  0  0  0  0  0  0  0  0  0  0
   -2.3377   -0.5604    1.0544 N   0  0  0  0  0  0  0  0  0  0  0  0
   -3.1069   -0.1816   -0.0302 C   0  0  0  0  0  0  0  0  0  0  0  0
   -4.2595   -0.5863   -0.1868 O   0  0  0  0  0  0  0  0  0  0  0  0
   -2.4603    0.8222   -1.0092 C   0  0  0  0  0  0  0  0  0  0  0  0
   -2.8215    2.2810   -0.7204 C   0  0  0  0  0  0  0  0  0  0  0  0
   -3.1725    2.7389    0.5598 C   0  0  0  0  0  0  0  0  0  0  0  0
   -3.4714    4.0862    0.7780 C   0  0  0  0  0  0  0  0  0  0  0  0
   -3.4192    4.9959   -0.2754 C   0  0  0  0  0  0  0  0  0  0  0  0
   -3.0675    4.5612   -1.5501 C   0  0  0  0  0  0  0  0  0  0  0  0
   -2.7698    3.2156   -1.7713 C   0  0  0  0  0  0  0  0  0  0  0  0
   -0.9647    0.5626   -1.2191 C   0  0  0  0  0  0  0  0  0  0  0  0
   -0.5682   -0.5210   -2.0211 C   0  0  0  0  0  0  0  0  0  0  0  0
    0.7835   -0.8280   -2.1951 C   0  0  0  0  0  0  0  0  0  0  0  0
    1.7724   -0.0616   -1.5677 C   0  0  0  0  0  0  0  0  0  0  0  0
    3.2390   -0.3904   -1.7468 C   0  0  0  0  0  0  0  0  0  0  0  0
    3.8880   -0.7898   -0.4948 N   0  0  0  0  0  0  0  0  0  0  0  0
    5.3325   -0.9569   -0.6588 C   0  0  0  0  0  0  0  0  0  0  0  0
    5.7344   -1.7020    0.6041 C   0  0  0  0  0  0  0  0  0  0  0  0
    4.4840   -2.4638    1.0292 C   0  0  0  0  0  0  0  0  0  0  0  0
    3.4170   -2.0803    0.0134 C   0  0  0  0  0  0  0  0  0  0  0  0
    1.3819    1.0186   -0.7656 C   0  0  0  0  0  0  0  0  0  0  0  0
    0.0309    1.3271   -0.5910 C   0  0  0  0  0  0  0  0  0  0  0  0
   -2.9828   -3.1623    0.6519 H   0  0  0  0  0  0  0  0  0  0  0  0
   -2.8564   -3.6614    2.3469 H   0  0  0  0  0  0  0  0  0  0  0  0
   -1.4214   -3.0873    1.4743 H   0  0  0  0  0  0  0  0  0  0  0  0
   -3.8919   -1.3997    2.1506 H   0  0  0  0  0  0  0  0  0  0  0  0
   -2.5271   -1.8960    4.1712 H   0  0  0  0  0  0  0  0  0  0  0  0
   -1.0711   -1.2985    3.3517 H   0  0  0  0  0  0  0  0  0  0  0  0
   -2.3938   -0.1865    3.7211 H   0  0  0  0  0  0  0  0  0  0  0  0
   -1.3700   -0.2611    1.0923 H   0  0  0  0  0  0  0  0  0  0  0  0
   -2.9427    0.5950   -1.9737 H   0  0  0  0  0  0  0  0  0  0  0  0
   -3.2247    2.0589    1.4067 H   0  0  0  0  0  0  0  0  0  0  0  0
   -3.7485    4.4246    1.7732 H   0  0  0  0  0  0  0  0  0  0  0  0
   -3.6539    6.0428   -0.1026 H   0  0  0  0  0  0  0  0  0  0  0  0
   -3.0244    5.2690   -2.3738 H   0  0  0  0  0  0  0  0  0  0  0  0
   -2.4904    2.8962   -2.7739 H   0  0  0  0  0  0  0  0  0  0  0  0
   -1.3152   -1.1431   -2.5121 H   0  0  0  0  0  0  0  0  0  0  0  0
    1.0580   -1.6754   -2.8192 H   0  0  0  0  0  0  0  0  0  0  0  0
    3.3633   -1.1617   -2.5187 H   0  0  0  0  0  0  0  0  0  0  0  0
    3.7238    0.5134   -2.1399 H   0  0  0  0  0  0  0  0  0  0  0  0
    5.8527    0.0025   -0.7421 H   0  0  0  0  0  0  0  0  0  0  0  0
    5.5737   -1.5640   -1.5409 H   0  0  0  0  0  0  0  0  0  0  0  0
    6.5793   -2.3744    0.4246 H   0  0  0  0  0  0  0  0  0  0  0  0
    6.0259   -0.9990    1.3934 H   0  0  0  0  0  0  0  0  0  0  0  0
    4.6537   -3.5453    1.0408 H   0  0  0  0  0  0  0  0  0  0  0  0
    4.1890   -2.1589    2.0401 H   0  0  0  0  0  0  0  0  0  0  0  0
    2.4311   -2.0124    0.4841 H   0  0  0  0  0  0  0  0  0  0  0  0
    3.3746   -2.8380   -0.7797 H   0  0  0  0  0  0  0  0  0  0  0  0
    2.1384    1.6191   -0.2634 H   0  0  0  0  0  0  0  0  0  0  0  0
   -0.2273    2.1709    0.0459 H   0  0  0  0  0  0  0  0  0  0  0  0
  1  2  1  0
  2  3  1  0
  2  4  1  0
  4  5  1  0
  5  6  2  0
  5  7  1  0
  7  8  1  0
  8  9  2  0
  9 10  1  0
 10 11  2  0
 11 12  1  0
 12 13  2  0
  7 14  1  0
 14 15  1  0
 15 16  2  0
 16 17  1  0
 17 18  1  0
 18 19  1  0
 19 20  1  0
 20 21  1  0
 21 22  1  0
 22 23  1  0
 17 24  2  0
 24 25  1  0
 13  8  1  0
 25 14  2  0
 23 19  1  0
  1 26  1  0
  1 27  1  0
  1 28  1  0
  2 29  1  0
  3 30  1  0
  3 31  1  0
  3 32  1  0
  4 33  1  0
  7 34  1  0
  9 35  1  0
 10 36  1  0
 11 37  1  0
 12 38  1  0
 13 39  1  0
 15 40  1  0
 16 41  1  0
 18 42  1  0
 18 43  1  0
 20 44  1  0
 20 45  1  0
 21 46  1  0
 21 47  1  0
 22 48  1  0
 22 49  1  0
 23 50  1  0
 23 51  1  0
 24 52  1  0
 25 53  1  0
M  END
>  <smiles>
CC(C)NC(=O)C(c1ccccc1)c1ccc(CN2CCCC2)cc1

$$$$
