mol_a21917670b70
     RDKit          3D

 48 48  0  0  0  0  0  0  0  0999 V2000
    5.4874   -0.1348   -1.6303 C   0  0  0  0  0  0  0  0  0  0  0  0
    4.9837    0.5744   -0.3723 C   0  0  0  0  0  0  0  0  0  0  0  0
    5.4202    2.0417   -0.3999 C   0  0  0  0  0  0  0  0  0  0  0  0
    3.4528    0.4890   -0.2173 C   0  0  0  0  0  0  0  0  0  0  0  0
    2.9379   -0.9430   -0.0229 C   0  0  0  0  0  0  0  0  0  0  0  0
    1.4157   -1.0053    0.2008 C   0  0  0  0  0  0  0  0  0  0  0  0
    1.0197   -0.5416    1.6101 C   0  0  0  0  0  0  0  0  0  0  0  0
   -0.4188   -0.4641    1.7925 N   0  0  0  0  0  0  0  0  0  0  0  0
   -1.1533    0.6033    1.3534 C   0  0  0  0  0  0  0  0  0  0  0  0
   -0.6235    1.5329    0.7483 O   0  0  0  0  0  0  0  0  0  0  0  0
   -2.5093    0.5446    1.6127 N   0  0  0  0  0  0  0  0  0  0  0  0
   -3.1696   -0.4983    2.3845 C   0  0  0  0  0  0  0  0  0  0  0  0
   -3.3736    1.5329    0.9709 C   0  0  0  0  0  0  0  0  0  0  0  0
   -4.1266    0.9505   -0.2036 C   0  0  0  0  0  0  0  0  0  0  0  0
   -5.4967    0.6676   -0.1113 C   0  0  0  0  0  0  0  0  0  0  0  0
   -6.1799    0.1183   -1.1980 C   0  0  0  0  0  0  0  0  0  0  0  0
   -5.5013   -0.1550   -2.3845 C   0  0  0  0  0  0  0  0  0  0  0  0
   -4.1390    0.1197   -2.4869 C   0  0  0  0  0  0  0  0  0  0  0  0
   -3.4543    0.6688   -1.4022 C   0  0  0  0  0  0  0  0  0  0  0  0
    0.9472   -2.4279   -0.0120 C   0  0  0  0  0  0  0  0  0  0  0  0
    0.6150   -3.2325    0.8437 O   0  0  0  0  0  0  0  0  0  0  0  0
    0.9215   -2.7753   -1.3151 O   0  0  0  0  0  0  0  0  0  0  0  0
    6.5664    0.0105   -1.7522 H   0  0  0  0  0  0  0  0  0  0  0  0
    4.9918    0.2495   -2.5282 H   0  0  0  0  0  0  0  0  0  0  0  0
    5.3124   -1.2134   -1.5781 H   0  0  0  0  0  0  0  0  0  0  0  0
    5.4526    0.1015    0.4999 H   0  0  0  0  0  0  0  0  0  0  0  0
    4.9841    2.5701   -1.2545 H   0  0  0  0  0  0  0  0  0  0  0  0
    6.5101    2.1228   -0.4710 H   0  0  0  0  0  0  0  0  0  0  0  0
    5.1081    2.5583    0.5139 H   0  0  0  0  0  0  0  0  0  0  0  0
    2.9669    0.9320   -1.0960 H   0  0  0  0  0  0  0  0  0  0  0  0
    3.1605    1.1009    0.6434 H   0  0  0  0  0  0  0  0  0  0  0  0
    3.4564   -1.4137    0.8222 H   0  0  0  0  0  0  0  0  0  0  0  0
    3.1948   -1.5354   -0.9085 H   0  0  0  0  0  0  0  0  0  0  0  0
    0.9010   -0.3833   -0.5428 H   0  0  0  0  0  0  0  0  0  0  0  0
    1.3994   -1.2286    2.3751 H   0  0  0  0  0  0  0  0  0  0  0  0
    1.4320    0.4490    1.8259 H   0  0  0  0  0  0  0  0  0  0  0  0
   -0.8855   -1.2945    2.1216 H   0  0  0  0  0  0  0  0  0  0  0  0
   -2.5344   -0.8359    3.2076 H   0  0  0  0  0  0  0  0  0  0  0  0
   -4.1013   -0.1173    2.8130 H   0  0  0  0  0  0  0  0  0  0  0  0
   -3.3843   -1.3424    1.7229 H   0  0  0  0  0  0  0  0  0  0  0  0
   -4.0677    1.9206    1.7266 H   0  0  0  0  0  0  0  0  0  0  0  0
   -2.7977    2.3980    0.6217 H   0  0  0  0  0  0  0  0  0  0  0  0
   -6.0408    0.8739    0.8072 H   0  0  0  0  0  0  0  0  0  0  0  0
   -7.2425   -0.0958   -1.1196 H   0  0  0  0  0  0  0  0  0  0  0  0
   -6.0342   -0.5813   -3.2303 H   0  0  0  0  0  0  0  0  0  0  0  0
   -3.6077   -0.0920   -3.4111 H   0  0  0  0  0  0  0  0  0  0  0  0
   -2.3894    0.8793   -1.4912 H   0  0  0  0  0  0  0  0  0  0  0  0
    0.5937   -3.6986   -1.3150 H   0  0  0  0  0  0  0  0  0  0  0  0
  1  2  1  0
  2  3  1  0
  2  4  1  0
  4  5  1  0
  5  6  1  0
  6  7  1  0
  7  8  1  0
  8  9  1  0
  9 10  2  0
  9 11  1  0
 11 12  1  0
 11 13  1  0
 13 14  1  0
 14 15  2  0
 15 16  1  0
 16 17  2  0
 17 18  1  0
 18 19  2  0
  6 20  1  0
 20 21  2  0
 20 22  1  0
 19 14  1  0
  1 23  1  0
  1 24  1  0
  1 25  1  0
  2 26  1  0
  3 27  1  0
  3 28  1  0
  3 29  1  0
  4 30  1  0
  4 31  1  0
  5 32  1  0
  5 33  1  0
  6 34  1  0
  7 35  1  0
  7 36  1  0
  8 37  1  0
 12 38  1  0
 12 39  1  0
 12 40  1  0
 13 41  1  0
 13 42  1  0
 15 43  1  0
 16 44  1  0
 17 45  1  0
 18 46  1  0
 19 47  1  0
 22 48  1  0
M  END
>  <smiles>
CC(C)CCC(CNC(=O)N(C)Cc1ccccc1)C(=O)O

$$$$
