mol_4441da100e3f
     RDKit          3D

 49 51  0  0  0  0  0  0  0  0999 V2000
    3.7380   -1.6930    1.6216 C   0  0  0  0  0  0  0  0  0  0  0  0
    3.6704   -1.2938    0.2252 N   0  0  0  0  0  0  0  0  0  0  0  0
    4.2381    0.0335   -0.0209 C   0  0  0  0  0  0  0  0  0  0  0  0
    3.4716    1.1721    0.6132 C   0  0  0  0  0  0  0  0  0  0  0  0
    4.0330    1.8719    1.6945 C   0  0  0  0  0  0  0  0  0  0  0  0
    3.3533    2.9391    2.2853 C   0  0  0  0  0  0  0  0  0  0  0  0
    2.1072    3.3283    1.7997 C   0  0  0  0  0  0  0  0  0  0  0  0
    1.5332    2.6441    0.7295 C   0  0  0  0  0  0  0  0  0  0  0  0
    2.2013    1.5565    0.1531 C   0  0  0  0  0  0  0  0  0  0  0  0
    1.6679    0.8751   -0.9217 O   0  0  0  0  0  0  0  0  0  0  0  0
    0.3483    0.4779   -0.8354 C   0  0  0  0  0  0  0  0  0  0  0  0
   -0.1264   -0.1932    0.2941 C   0  0  0  0  0  0  0  0  0  0  0  0
   -1.4571   -0.6456    0.3798 C   0  0  0  0  0  0  0  0  0  0  0  0
   -2.3452   -0.3958   -0.6899 C   0  0  0  0  0  0  0  0  0  0  0  0
   -1.8091    0.1972   -1.8761 C   0  0  0  0  0  0  0  0  0  0  0  0
   -2.7041    0.3135   -3.0583 C   0  0  0  0  0  0  0  0  0  0  0  0
   -3.8741    0.6535   -3.0487 O   0  0  0  0  0  0  0  0  0  0  0  0
   -2.1121   -0.1093   -4.1908 O   0  0  0  0  0  0  0  0  0  0  0  0
   -0.4787    0.6781   -1.9445 C   0  0  0  0  0  0  0  0  0  0  0  0
    0.0660    1.3742   -3.1644 C   0  0  0  0  0  0  0  0  0  0  0  0
   -3.6964   -0.7433   -0.6424 N   0  0  0  0  0  0  0  0  0  0  0  0
   -4.4423   -0.9241    0.5831 C   0  0  0  0  0  0  0  0  0  0  0  0
   -4.1846   -2.2861    1.2058 C   0  0  0  0  0  0  0  0  0  0  0  0
   -2.7089   -2.6226    1.4003 C   0  0  0  0  0  0  0  0  0  0  0  0
   -1.8290   -1.3986    1.6437 C   0  0  0  0  0  0  0  0  0  0  0  0
    3.3781   -2.7221    1.7195 H   0  0  0  0  0  0  0  0  0  0  0  0
    4.7677   -1.6709    1.9928 H   0  0  0  0  0  0  0  0  0  0  0  0
    3.1115   -1.0647    2.2620 H   0  0  0  0  0  0  0  0  0  0  0  0
    2.7017   -1.2969   -0.0937 H   0  0  0  0  0  0  0  0  0  0  0  0
    4.2716    0.2022   -1.1046 H   0  0  0  0  0  0  0  0  0  0  0  0
    5.2877    0.0507    0.2992 H   0  0  0  0  0  0  0  0  0  0  0  0
    5.0101    1.5892    2.0811 H   0  0  0  0  0  0  0  0  0  0  0  0
    3.8021    3.4730    3.1193 H   0  0  0  0  0  0  0  0  0  0  0  0
    1.5846    4.1679    2.2506 H   0  0  0  0  0  0  0  0  0  0  0  0
    0.5682    2.9659    0.3473 H   0  0  0  0  0  0  0  0  0  0  0  0
    0.5553   -0.3808    1.1220 H   0  0  0  0  0  0  0  0  0  0  0  0
   -2.8198   -0.0555   -4.8656 H   0  0  0  0  0  0  0  0  0  0  0  0
    0.4452    0.6394   -3.8812 H   0  0  0  0  0  0  0  0  0  0  0  0
   -0.6979    1.9955   -3.6429 H   0  0  0  0  0  0  0  0  0  0  0  0
    0.8814    2.0597   -2.9103 H   0  0  0  0  0  0  0  0  0  0  0  0
   -4.2595   -0.4505   -1.4447 H   0  0  0  0  0  0  0  0  0  0  0  0
   -4.2379   -0.1090    1.2875 H   0  0  0  0  0  0  0  0  0  0  0  0
   -5.5119   -0.8511    0.3516 H   0  0  0  0  0  0  0  0  0  0  0  0
   -4.6458   -3.0725    0.5955 H   0  0  0  0  0  0  0  0  0  0  0  0
   -4.6913   -2.3180    2.1784 H   0  0  0  0  0  0  0  0  0  0  0  0
   -2.3407   -3.1816    0.5301 H   0  0  0  0  0  0  0  0  0  0  0  0
   -2.6267   -3.3047    2.2557 H   0  0  0  0  0  0  0  0  0  0  0  0
   -2.2852   -0.7091    2.3636 H   0  0  0  0  0  0  0  0  0  0  0  0
   -0.9088   -1.7660    2.1174 H   0  0  0  0  0  0  0  0  0  0  0  0
  1  2  1  0
  2  3  1  0
  3  4  1  0
  4  5  2  0
  5  6  1  0
  6  7  2  0
  7  8  1  0
  8  9  2  0
  9 10  1  0
 10 11  1  0
 11 12  2  0
 12 13  1  0
 13 14  2  0
 14 15  1  0
 15 16  1  0
 16 17  2  0
 16 18  1  0
 15 19  2  0
 19 20  1  0
 14 21  1  0
 21 22  1  0
 22 23  1  0
 23 24  1  0
 24 25  1  0
  9  4  1  0
 19 11  1  0
 25 13  1  0
  1 26  1  0
  1 27  1  0
  1 28  1  0
  2 29  1  0
  3 30  1  0
  3 31  1  0
  5 32  1  0
  6 33  1  0
  7 34  1  0
  8 35  1  0
 12 36  1  0
 18 37  1  0
 20 38  1  0
 20 39  1  0
 20 40  1  0
 21 41  1  0
 22 42  1  0
 22 43  1  0
 23 44  1  0
 23 45  1  0
 24 46  1  0
 24 47  1  0
 25 48  1  0
 25 49  1  0
M  END
>  <smiles>
CNCc1ccccc1Oc1cc2c(c(C(=O)O)c1C)NCCCC2

$$$$
