mol_25844b3a93f8
     RDKit          3D

 36 36  0  0  0  0  0  0  0  0999 V2000
   -0.5441    2.4838    2.6002 C   0  0  0  0  0  0  0  0  0  0  0  0
   -0.2902    1.5876    1.4233 C   0  0  0  0  0  0  0  0  0  0  0  0
    0.8605    1.7526    0.6472 C   0  0  0  0  0  0  0  0  0  0  0  0
    1.0894    0.9410   -0.4674 C   0  0  0  0  0  0  0  0  0  0  0  0
    2.3489    1.0994   -1.2853 C   0  0  0  0  0  0  0  0  0  0  0  0
    3.4288    0.0847   -0.9191 C   0  0  0  0  0  0  0  0  0  0  0  0
    4.0363    0.3080    0.4378 C   0  0  0  0  0  0  0  0  0  0  0  0
    4.3191   -0.5596    1.2479 O   0  0  0  0  0  0  0  0  0  0  0  0
    4.3634    1.5907    0.6839 O   0  0  0  0  0  0  0  0  0  0  0  0
    0.1429   -0.0376   -0.8047 C   0  0  0  0  0  0  0  0  0  0  0  0
   -1.0336   -0.2234   -0.0510 C   0  0  0  0  0  0  0  0  0  0  0  0
   -2.0583   -1.2903   -0.4863 C   0  0  0  0  0  0  0  0  0  0  0  0
   -2.7083   -0.8063   -1.8006 C   0  0  0  0  0  0  0  0  0  0  0  0
   -3.1821   -1.5378    0.5417 C   0  0  0  0  0  0  0  0  0  0  0  0
   -1.3848   -2.6590   -0.6806 C   0  0  0  0  0  0  0  0  0  0  0  0
   -0.4131   -3.0969   -0.0841 O   0  0  0  0  0  0  0  0  0  0  0  0
   -2.0102   -3.4557   -1.5741 O   0  0  0  0  0  0  0  0  0  0  0  0
   -1.2328    0.6133    1.0602 C   0  0  0  0  0  0  0  0  0  0  0  0
   -1.1172    3.3611    2.2851 H   0  0  0  0  0  0  0  0  0  0  0  0
    0.3975    2.8186    3.0481 H   0  0  0  0  0  0  0  0  0  0  0  0
   -1.1031    1.9554    3.3796 H   0  0  0  0  0  0  0  0  0  0  0  0
    1.5861    2.5181    0.9163 H   0  0  0  0  0  0  0  0  0  0  0  0
    2.0895    0.9777   -2.3451 H   0  0  0  0  0  0  0  0  0  0  0  0
    2.7241    2.1261   -1.1934 H   0  0  0  0  0  0  0  0  0  0  0  0
    4.2444    0.1311   -1.6497 H   0  0  0  0  0  0  0  0  0  0  0  0
    3.0216   -0.9329   -0.9444 H   0  0  0  0  0  0  0  0  0  0  0  0
    4.7749    1.5514    1.5732 H   0  0  0  0  0  0  0  0  0  0  0  0
    0.3331   -0.6681   -1.6724 H   0  0  0  0  0  0  0  0  0  0  0  0
   -3.1297    0.1999   -1.6890 H   0  0  0  0  0  0  0  0  0  0  0  0
   -1.9852   -0.7752   -2.6240 H   0  0  0  0  0  0  0  0  0  0  0  0
   -3.5235   -1.4678   -2.1168 H   0  0  0  0  0  0  0  0  0  0  0  0
   -2.7756   -1.8391    1.5147 H   0  0  0  0  0  0  0  0  0  0  0  0
   -3.8504   -2.3435    0.2137 H   0  0  0  0  0  0  0  0  0  0  0  0
   -3.8028   -0.6469    0.6901 H   0  0  0  0  0  0  0  0  0  0  0  0
   -1.4870   -4.2847   -1.5447 H   0  0  0  0  0  0  0  0  0  0  0  0
   -2.1285    0.5246    1.6696 H   0  0  0  0  0  0  0  0  0  0  0  0
  1  2  1  0
  2  3  2  0
  3  4  1  0
  4  5  1  0
  5  6  1  0
  6  7  1  0
  7  8  2  0
  7  9  1  0
  4 10  2  0
 10 11  1  0
 11 12  1  0
 12 13  1  0
 12 14  1  0
 12 15  1  0
 15 16  2  0
 15 17  1  0
 11 18  2  0
 18  2  1  0
  1 19  1  0
  1 20  1  0
  1 21  1  0
  3 22  1  0
  5 23  1  0
  5 24  1  0
  6 25  1  0
  6 26  1  0
  9 27  1  0
 10 28  1  0
 13 29  1  0
 13 30  1  0
 13 31  1  0
 14 32  1  0
 14 33  1  0
 14 34  1  0
 17 35  1  0
 18 36  1  0
M  END
>  <smiles>
Cc1cc(CCC(=O)O)cc(C(C)(C)C(=O)O)c1

$$$$
