mol_2b6de7f99d2e
     RDKit          3D

 51 53  0  0  0  0  0  0  0  0999 V2000
   -0.8665   -4.4165    1.4286 C   0  0  0  0  0  0  0  0  0  0  0  0
   -0.7870   -3.0406    0.8356 C   0  0  0  0  0  0  0  0  0  0  0  0
    0.4312   -2.5427    0.3612 C   0  0  0  0  0  0  0  0  0  0  0  0
    0.5034   -1.2752   -0.2284 C   0  0  0  0  0  0  0  0  0  0  0  0
    1.8234   -0.7262   -0.7094 C   0  0  0  0  0  0  0  0  0  0  0  0
    2.5214    0.1012    0.3723 C   0  0  0  0  0  0  0  0  0  0  0  0
    3.7878    0.6455   -0.0882 N   0  0  0  0  0  0  0  0  0  0  0  0
    5.0026   -0.1282   -0.1314 C   0  0  0  0  0  0  0  0  0  0  0  0
    6.0833    0.9164   -0.3889 C   0  0  0  0  0  0  0  0  0  0  0  0
    6.6507    1.4751    0.9171 C   0  0  0  0  0  0  0  0  0  0  0  0
    5.3473    1.9976   -1.1879 C   0  0  0  0  0  0  0  0  0  0  0  0
    3.9158    1.8696   -0.7249 C   0  0  0  0  0  0  0  0  0  0  0  0
    3.0292    2.6810   -0.9312 O   0  0  0  0  0  0  0  0  0  0  0  0
   -0.6639   -0.5051   -0.3410 C   0  0  0  0  0  0  0  0  0  0  0  0
   -1.9032   -0.9846    0.1132 C   0  0  0  0  0  0  0  0  0  0  0  0
   -3.1232   -0.1715   -0.0183 C   0  0  0  0  0  0  0  0  0  0  0  0
   -3.5193    0.3399   -1.2644 C   0  0  0  0  0  0  0  0  0  0  0  0
   -4.6820    1.1113   -1.3941 C   0  0  0  0  0  0  0  0  0  0  0  0
   -5.0447    1.6110   -2.7429 C   0  0  0  0  0  0  0  0  0  0  0  0
   -4.4250    1.4096   -3.7702 O   0  0  0  0  0  0  0  0  0  0  0  0
   -6.1730    2.3420   -2.7391 O   0  0  0  0  0  0  0  0  0  0  0  0
   -5.4646    1.3842   -0.2662 C   0  0  0  0  0  0  0  0  0  0  0  0
   -5.0887    0.8953    0.9938 C   0  0  0  0  0  0  0  0  0  0  0  0
   -5.9418    1.1695    2.2075 C   0  0  0  0  0  0  0  0  0  0  0  0
   -6.9162    0.2336    2.3728 F   0  0  0  0  0  0  0  0  0  0  0  0
   -5.2324    1.1810    3.3700 F   0  0  0  0  0  0  0  0  0  0  0  0
   -6.5809    2.3707    2.1504 F   0  0  0  0  0  0  0  0  0  0  0  0
   -3.9244    0.1146    1.1008 C   0  0  0  0  0  0  0  0  0  0  0  0
   -1.9450   -2.2625    0.6956 C   0  0  0  0  0  0  0  0  0  0  0  0
   -1.0747   -5.1504    0.6441 H   0  0  0  0  0  0  0  0  0  0  0  0
    0.0732   -4.6839    1.9234 H   0  0  0  0  0  0  0  0  0  0  0  0
   -1.6573   -4.4709    2.1842 H   0  0  0  0  0  0  0  0  0  0  0  0
    1.3308   -3.1488    0.4514 H   0  0  0  0  0  0  0  0  0  0  0  0
    1.6613   -0.1173   -1.6083 H   0  0  0  0  0  0  0  0  0  0  0  0
    2.4694   -1.5534   -1.0302 H   0  0  0  0  0  0  0  0  0  0  0  0
    2.7131   -0.4962    1.2711 H   0  0  0  0  0  0  0  0  0  0  0  0
    1.8784    0.9397    0.6659 H   0  0  0  0  0  0  0  0  0  0  0  0
    4.9273   -0.8345   -0.9650 H   0  0  0  0  0  0  0  0  0  0  0  0
    5.1435   -0.6768    0.8045 H   0  0  0  0  0  0  0  0  0  0  0  0
    6.9119    0.4920   -0.9665 H   0  0  0  0  0  0  0  0  0  0  0  0
    5.8706    1.9183    1.5453 H   0  0  0  0  0  0  0  0  0  0  0  0
    7.1384    0.6825    1.4942 H   0  0  0  0  0  0  0  0  0  0  0  0
    7.3980    2.2487    0.7114 H   0  0  0  0  0  0  0  0  0  0  0  0
    5.7288    3.0047   -1.0012 H   0  0  0  0  0  0  0  0  0  0  0  0
    5.3788    1.7813   -2.2609 H   0  0  0  0  0  0  0  0  0  0  0  0
   -0.6019    0.4888   -0.7844 H   0  0  0  0  0  0  0  0  0  0  0  0
   -2.9210    0.1249   -2.1501 H   0  0  0  0  0  0  0  0  0  0  0  0
   -6.2851    2.6053   -3.6770 H   0  0  0  0  0  0  0  0  0  0  0  0
   -6.3711    1.9811   -0.3610 H   0  0  0  0  0  0  0  0  0  0  0  0
   -3.6288   -0.2658    2.0799 H   0  0  0  0  0  0  0  0  0  0  0  0
   -2.8976   -2.6651    1.0370 H   0  0  0  0  0  0  0  0  0  0  0  0
  1  2  1  0
  2  3  2  0
  3  4  1  0
  4  5  1  0
  5  6  1  0
  6  7  1  0
  7  8  1  0
  8  9  1  0
  9 10  1  0
  9 11  1  0
 11 12  1  0
 12 13  2  0
  4 14  2  0
 14 15  1  0
 15 16  1  0
 16 17  1  0
 17 18  2  0
 18 19  1  0
 19 20  2  0
 19 21  1  0
 18 22  1  0
 22 23  2  0
 23 24  1  0
 24 25  1  0
 24 26  1  0
 24 27  1  0
 23 28  1  0
 15 29  2  0
 29  2  1  0
 12  7  1  0
 28 16  2  0
  1 30  1  0
  1 31  1  0
  1 32  1  0
  3 33  1  0
  5 34  1  0
  5 35  1  0
  6 36  1  0
  6 37  1  0
  8 38  1  0
  8 39  1  0
  9 40  1  0
 10 41  1  0
 10 42  1  0
 10 43  1  0
 11 44  1  0
 11 45  1  0
 14 46  1  0
 17 47  1  0
 21 48  1  0
 22 49  1  0
 28 50  1  0
 29 51  1  0
M  END
>  <smiles>
Cc1cc(CCN2CC(C)CC2=O)cc(-c2cc(C(=O)O)cc(C(F)(F)F)c2)c1

$$$$
