mol_3e6ae004d01e
     RDKit          3D

 55 57  0  0  0  0  0  0  0  0999 V2000
   -2.6424   -3.5899   -0.8985 C   0  0  0  0  0  0  0  0  0  0  0  0
   -3.7886   -2.7630   -0.7303 O   0  0  0  0  0  0  0  0  0  0  0  0
   -3.5757   -1.4754   -0.3085 C   0  0  0  0  0  0  0  0  0  0  0  0
   -2.3272   -0.8472   -0.2526 C   0  0  0  0  0  0  0  0  0  0  0  0
   -2.1620    0.4961    0.1736 C   0  0  0  0  0  0  0  0  0  0  0  0
   -0.8820    1.1324    0.2344 C   0  0  0  0  0  0  0  0  0  0  0  0
    0.3747    0.3696   -0.1841 C   0  0  0  0  0  0  0  0  0  0  0  0
    1.7288    1.0939   -0.0497 C   0  0  0  0  0  0  0  0  0  0  0  0
    3.0072    0.2962   -0.4642 C   0  0  0  0  0  0  0  0  0  0  0  0
    2.7880   -0.4661   -1.7854 C   0  0  0  0  0  0  0  0  0  0  0  0
    4.1422    1.3326   -0.6290 C   0  0  0  0  0  0  0  0  0  0  0  0
    5.5027    0.6811   -0.7984 C   0  0  0  0  0  0  0  0  0  0  0  0
    5.7934   -0.1880    0.4062 C   0  0  0  0  0  0  0  0  0  0  0  0
    4.7079   -1.0907    0.7566 N   0  0  0  0  0  0  0  0  0  0  0  0
    5.0502   -2.1886    1.6468 C   0  0  0  0  0  0  0  0  0  0  0  0
    3.3667   -0.7547    0.6082 C   0  0  0  0  0  0  0  0  0  0  0  0
    2.4853   -1.3521    1.2281 O   0  0  0  0  0  0  0  0  0  0  0  0
   -0.8027    2.4634    0.6670 C   0  0  0  0  0  0  0  0  0  0  0  0
   -1.9440    3.1681    1.0337 C   0  0  0  0  0  0  0  0  0  0  0  0
   -3.2053    2.5673    0.9790 C   0  0  0  0  0  0  0  0  0  0  0  0
   -4.4005    3.3901    1.3882 C   0  0  0  0  0  0  0  0  0  0  0  0
   -3.3260    1.2215    0.5475 C   0  0  0  0  0  0  0  0  0  0  0  0
   -4.5791    0.5713    0.4748 C   0  0  0  0  0  0  0  0  0  0  0  0
   -4.7184   -0.7613    0.0573 C   0  0  0  0  0  0  0  0  0  0  0  0
   -6.0872   -1.3928    0.0216 C   0  0  0  0  0  0  0  0  0  0  0  0
   -6.4703   -1.6999   -1.3126 O   0  0  0  0  0  0  0  0  0  0  0  0
   -2.0398   -3.2541   -1.7485 H   0  0  0  0  0  0  0  0  0  0  0  0
   -2.9925   -4.6028   -1.1199 H   0  0  0  0  0  0  0  0  0  0  0  0
   -2.0460   -3.6372    0.0188 H   0  0  0  0  0  0  0  0  0  0  0  0
   -1.4472   -1.4058   -0.5515 H   0  0  0  0  0  0  0  0  0  0  0  0
    0.2344    0.1003   -1.2376 H   0  0  0  0  0  0  0  0  0  0  0  0
    0.4067   -0.5504    0.4062 H   0  0  0  0  0  0  0  0  0  0  0  0
    1.8531    1.4257    0.9903 H   0  0  0  0  0  0  0  0  0  0  0  0
    1.6799    2.0022   -0.6662 H   0  0  0  0  0  0  0  0  0  0  0  0
    2.4892    0.2147   -2.5897 H   0  0  0  0  0  0  0  0  0  0  0  0
    2.0143   -1.2352   -1.6823 H   0  0  0  0  0  0  0  0  0  0  0  0
    3.6880   -0.9979   -2.1102 H   0  0  0  0  0  0  0  0  0  0  0  0
    4.1770    1.9877    0.2523 H   0  0  0  0  0  0  0  0  0  0  0  0
    3.9434    1.9800   -1.4923 H   0  0  0  0  0  0  0  0  0  0  0  0
    5.5392    0.0853   -1.7161 H   0  0  0  0  0  0  0  0  0  0  0  0
    6.2776    1.4500   -0.8949 H   0  0  0  0  0  0  0  0  0  0  0  0
    6.6970   -0.7781    0.2161 H   0  0  0  0  0  0  0  0  0  0  0  0
    5.9824    0.4407    1.2848 H   0  0  0  0  0  0  0  0  0  0  0  0
    5.9132   -2.7255    1.2424 H   0  0  0  0  0  0  0  0  0  0  0  0
    5.2981   -1.7779    2.6301 H   0  0  0  0  0  0  0  0  0  0  0  0
    4.2210   -2.8932    1.7550 H   0  0  0  0  0  0  0  0  0  0  0  0
    0.1476    2.9851    0.7298 H   0  0  0  0  0  0  0  0  0  0  0  0
   -1.8385    4.1993    1.3644 H   0  0  0  0  0  0  0  0  0  0  0  0
   -5.0987    3.4906    0.5510 H   0  0  0  0  0  0  0  0  0  0  0  0
   -4.9077    2.9277    2.2412 H   0  0  0  0  0  0  0  0  0  0  0  0
   -4.1100    4.4016    1.6924 H   0  0  0  0  0  0  0  0  0  0  0  0
   -5.4833    1.1114    0.7490 H   0  0  0  0  0  0  0  0  0  0  0  0
   -6.0966   -2.3130    0.6161 H   0  0  0  0  0  0  0  0  0  0  0  0
   -6.8480   -0.7278    0.4431 H   0  0  0  0  0  0  0  0  0  0  0  0
   -5.6891   -2.1174   -1.7202 H   0  0  0  0  0  0  0  0  0  0  0  0
  1  2  1  0
  2  3  1  0
  3  4  2  0
  4  5  1  0
  5  6  2  0
  6  7  1  0
  7  8  1  0
  8  9  1  0
  9 10  1  0
  9 11  1  0
 11 12  1  0
 12 13  1  0
 13 14  1  0
 14 15  1  0
 14 16  1  0
 16 17  2  0
  6 18  1  0
 18 19  2  0
 19 20  1  0
 20 21  1  0
 20 22  2  0
 22 23  1  0
 23 24  2  0
 24 25  1  0
 25 26  1  0
 24  3  1  0
 22  5  1  0
 16  9  1  0
  1 27  1  0
  1 28  1  0
  1 29  1  0
  4 30  1  0
  7 31  1  0
  7 32  1  0
  8 33  1  0
  8 34  1  0
 10 35  1  0
 10 36  1  0
 10 37  1  0
 11 38  1  0
 11 39  1  0
 12 40  1  0
 12 41  1  0
 13 42  1  0
 13 43  1  0
 15 44  1  0
 15 45  1  0
 15 46  1  0
 18 47  1  0
 19 48  1  0
 21 49  1  0
 21 50  1  0
 21 51  1  0
 23 52  1  0
 25 53  1  0
 25 54  1  0
 26 55  1  0
M  END
>  <smiles>
COc1cc2c(CCC3(C)CCCN(C)C3=O)ccc(C)c2cc1CO

$$$$
