mol_cc147b5caf5c
     RDKit          3D

 50 51  0  0  0  0  0  0  0  0999 V2000
   -2.6833    4.2148    2.3779 C   0  0  0  0  0  0  0  0  0  0  0  0
   -1.5302    3.2816    2.7127 C   0  0  0  0  0  0  0  0  0  0  0  0
   -1.6876    1.8807    2.1171 C   0  0  0  0  0  0  0  0  0  0  0  0
   -1.6680    1.8706    0.5833 C   0  0  0  0  0  0  0  0  0  0  0  0
   -1.6404    0.4574    0.0278 C   0  0  0  0  0  0  0  0  0  0  0  0
   -2.8463   -0.2571    0.0767 C   0  0  0  0  0  0  0  0  0  0  0  0
   -2.9499   -1.5842   -0.3620 C   0  0  0  0  0  0  0  0  0  0  0  0
   -4.3081   -2.2412   -0.2890 C   0  0  0  0  0  0  0  0  0  0  0  0
   -4.3345   -3.1693    0.7839 O   0  0  0  0  0  0  0  0  0  0  0  0
   -1.7958   -2.2531   -0.8344 C   0  0  0  0  0  0  0  0  0  0  0  0
   -1.8380   -3.6081   -1.2353 C   0  0  0  0  0  0  0  0  0  0  0  0
   -0.7065   -4.2650   -1.6965 C   0  0  0  0  0  0  0  0  0  0  0  0
   -0.7899   -5.5495   -2.0669 F   0  0  0  0  0  0  0  0  0  0  0  0
    0.5031   -3.6097   -1.7718 C   0  0  0  0  0  0  0  0  0  0  0  0
    0.5756   -2.2735   -1.3775 C   0  0  0  0  0  0  0  0  0  0  0  0
   -0.5547   -1.5528   -0.9048 C   0  0  0  0  0  0  0  0  0  0  0  0
   -0.4894   -0.1771   -0.4958 C   0  0  0  0  0  0  0  0  0  0  0  0
    0.8233    0.5857   -0.6073 C   0  0  0  0  0  0  0  0  0  0  0  0
    1.6952    0.4205    0.6291 C   0  0  0  0  0  0  0  0  0  0  0  0
    2.9950    1.1489    0.4344 C   0  0  0  0  0  0  0  0  0  0  0  0
    3.2270    2.2693    0.8671 O   0  0  0  0  0  0  0  0  0  0  0  0
    3.8489    0.4011   -0.3148 O   0  0  0  0  0  0  0  0  0  0  0  0
    5.1368    1.0063   -0.5194 C   0  0  0  0  0  0  0  0  0  0  0  0
    5.9937    0.0663   -1.3611 C   0  0  0  0  0  0  0  0  0  0  0  0
    6.3579   -1.0809   -0.5967 O   0  0  0  0  0  0  0  0  0  0  0  0
   -3.6413    3.7801    2.6801 H   0  0  0  0  0  0  0  0  0  0  0  0
   -2.7243    4.4333    1.3068 H   0  0  0  0  0  0  0  0  0  0  0  0
   -2.5616    5.1664    2.9054 H   0  0  0  0  0  0  0  0  0  0  0  0
   -1.4606    3.1899    3.8031 H   0  0  0  0  0  0  0  0  0  0  0  0
   -0.5886    3.7278    2.3721 H   0  0  0  0  0  0  0  0  0  0  0  0
   -2.6187    1.4321    2.4855 H   0  0  0  0  0  0  0  0  0  0  0  0
   -0.8740    1.2533    2.5006 H   0  0  0  0  0  0  0  0  0  0  0  0
   -0.8313    2.4718    0.2231 H   0  0  0  0  0  0  0  0  0  0  0  0
   -2.5635    2.3714    0.1929 H   0  0  0  0  0  0  0  0  0  0  0  0
   -3.7323    0.2359    0.4773 H   0  0  0  0  0  0  0  0  0  0  0  0
   -4.5454   -2.7526   -1.2280 H   0  0  0  0  0  0  0  0  0  0  0  0
   -5.0971   -1.4996   -0.1208 H   0  0  0  0  0  0  0  0  0  0  0  0
   -5.2337   -3.5343    0.8191 H   0  0  0  0  0  0  0  0  0  0  0  0
   -2.7536   -4.1885   -1.1768 H   0  0  0  0  0  0  0  0  0  0  0  0
    1.3839   -4.1350   -2.1252 H   0  0  0  0  0  0  0  0  0  0  0  0
    1.5559   -1.8078   -1.4365 H   0  0  0  0  0  0  0  0  0  0  0  0
    0.6460    1.6467   -0.8096 H   0  0  0  0  0  0  0  0  0  0  0  0
    1.3624    0.2746   -1.5103 H   0  0  0  0  0  0  0  0  0  0  0  0
    1.9073   -0.6313    0.8531 H   0  0  0  0  0  0  0  0  0  0  0  0
    1.2087    0.8294    1.5207 H   0  0  0  0  0  0  0  0  0  0  0  0
    5.6102    1.1782    0.4540 H   0  0  0  0  0  0  0  0  0  0  0  0
    5.0053    1.9549   -1.0517 H   0  0  0  0  0  0  0  0  0  0  0  0
    6.9130    0.5695   -1.6747 H   0  0  0  0  0  0  0  0  0  0  0  0
    5.4426   -0.2757   -2.2428 H   0  0  0  0  0  0  0  0  0  0  0  0
    6.8570   -1.6717   -1.1863 H   0  0  0  0  0  0  0  0  0  0  0  0
  1  2  1  0
  2  3  1  0
  3  4  1  0
  4  5  1  0
  5  6  1  0
  6  7  2  0
  7  8  1  0
  8  9  1  0
  7 10  1  0
 10 11  2  0
 11 12  1  0
 12 13  1  0
 12 14  2  0
 14 15  1  0
 15 16  2  0
 16 17  1  0
 17 18  1  0
 18 19  1  0
 19 20  1  0
 20 21  2  0
 20 22  1  0
 22 23  1  0
 23 24  1  0
 24 25  1  0
 17  5  2  0
 16 10  1  0
  1 26  1  0
  1 27  1  0
  1 28  1  0
  2 29  1  0
  2 30  1  0
  3 31  1  0
  3 32  1  0
  4 33  1  0
  4 34  1  0
  6 35  1  0
  8 36  1  0
  8 37  1  0
  9 38  1  0
 11 39  1  0
 14 40  1  0
 15 41  1  0
 18 42  1  0
 18 43  1  0
 19 44  1  0
 19 45  1  0
 23 46  1  0
 23 47  1  0
 24 48  1  0
 24 49  1  0
 25 50  1  0
M  END
>  <smiles>
CCCCc1cc(CO)c2cc(F)ccc2c1CCC(=O)OCCO

$$$$
