mol_2b948f58e98b
     RDKit          3D

 52 54  0  0  0  0  0  0  0  0999 V2000
    4.0379   -0.4626    2.1137 C   0  0  0  0  0  0  0  0  0  0  0  0
    4.0568    0.3061    0.7794 C   0  0  0  0  0  0  0  0  0  0  0  0
    4.6806    1.6909    1.0300 C   0  0  0  0  0  0  0  0  0  0  0  0
    4.8702   -0.4250   -0.2895 C   0  0  0  0  0  0  0  0  0  0  0  0
    4.2493   -1.7605   -0.6381 C   0  0  0  0  0  0  0  0  0  0  0  0
    2.7576   -1.7312   -0.9184 C   0  0  0  0  0  0  0  0  0  0  0  0
    2.2972   -2.6161   -1.6441 O   0  0  0  0  0  0  0  0  0  0  0  0
    1.9996   -0.7421   -0.2774 N   0  0  0  0  0  0  0  0  0  0  0  0
    0.5557   -0.7992   -0.2779 C   0  0  0  0  0  0  0  0  0  0  0  0
   -0.1240   -2.0145   -0.3253 C   0  0  0  0  0  0  0  0  0  0  0  0
   -1.5223   -2.0660   -0.3054 C   0  0  0  0  0  0  0  0  0  0  0  0
   -2.3072   -0.9030   -0.2435 C   0  0  0  0  0  0  0  0  0  0  0  0
   -1.6460    0.3408   -0.1509 C   0  0  0  0  0  0  0  0  0  0  0  0
   -0.2279    0.3631   -0.1897 C   0  0  0  0  0  0  0  0  0  0  0  0
   -2.4141    1.6680   -0.0597 C   0  0  0  0  0  0  0  0  0  0  0  0
   -2.2863    2.4128   -1.4070 C   0  0  0  0  0  0  0  0  0  0  0  0
   -1.8529    2.5788    1.0577 C   0  0  0  0  0  0  0  0  0  0  0  0
   -3.9065    1.4374    0.2689 C   0  0  0  0  0  0  0  0  0  0  0  0
   -4.5052    0.3131   -0.5583 C   0  0  0  0  0  0  0  0  0  0  0  0
   -3.8306   -1.0197   -0.2086 C   0  0  0  0  0  0  0  0  0  0  0  0
   -4.4208   -2.1111   -1.1318 C   0  0  0  0  0  0  0  0  0  0  0  0
   -4.3596   -3.4051   -0.5333 O   0  0  0  0  0  0  0  0  0  0  0  0
    2.6299    0.4816    0.2361 C   0  0  0  0  0  0  0  0  0  0  0  0
    3.5267   -1.4270    2.0332 H   0  0  0  0  0  0  0  0  0  0  0  0
    5.0564   -0.6530    2.4704 H   0  0  0  0  0  0  0  0  0  0  0  0
    3.5173    0.1118    2.8887 H   0  0  0  0  0  0  0  0  0  0  0  0
    4.7214    2.2830    0.1087 H   0  0  0  0  0  0  0  0  0  0  0  0
    5.7038    1.5994    1.4116 H   0  0  0  0  0  0  0  0  0  0  0  0
    4.0989    2.2601    1.7639 H   0  0  0  0  0  0  0  0  0  0  0  0
    5.9040   -0.5779    0.0439 H   0  0  0  0  0  0  0  0  0  0  0  0
    4.9231    0.1889   -1.1987 H   0  0  0  0  0  0  0  0  0  0  0  0
    4.4141   -2.4836    0.1689 H   0  0  0  0  0  0  0  0  0  0  0  0
    4.7519   -2.1596   -1.5275 H   0  0  0  0  0  0  0  0  0  0  0  0
    0.4091   -2.9610   -0.3550 H   0  0  0  0  0  0  0  0  0  0  0  0
   -1.9831   -3.0512   -0.3385 H   0  0  0  0  0  0  0  0  0  0  0  0
    0.2606    1.3323   -0.1934 H   0  0  0  0  0  0  0  0  0  0  0  0
   -2.8781    3.3353   -1.4061 H   0  0  0  0  0  0  0  0  0  0  0  0
   -1.2476    2.6948   -1.6158 H   0  0  0  0  0  0  0  0  0  0  0  0
   -2.6244    1.7983   -2.2485 H   0  0  0  0  0  0  0  0  0  0  0  0
   -0.8362    2.9261    0.8457 H   0  0  0  0  0  0  0  0  0  0  0  0
   -2.4728    3.4749    1.1804 H   0  0  0  0  0  0  0  0  0  0  0  0
   -1.8282    2.0548    2.0205 H   0  0  0  0  0  0  0  0  0  0  0  0
   -4.4803    2.3584    0.1049 H   0  0  0  0  0  0  0  0  0  0  0  0
   -4.0259    1.1880    1.3326 H   0  0  0  0  0  0  0  0  0  0  0  0
   -4.4113    0.5292   -1.6292 H   0  0  0  0  0  0  0  0  0  0  0  0
   -5.5796    0.2472   -0.3455 H   0  0  0  0  0  0  0  0  0  0  0  0
   -4.0850   -1.2693    0.8314 H   0  0  0  0  0  0  0  0  0  0  0  0
   -3.8984   -2.1515   -2.0937 H   0  0  0  0  0  0  0  0  0  0  0  0
   -5.4798   -1.9201   -1.3382 H   0  0  0  0  0  0  0  0  0  0  0  0
   -4.8374   -3.3617    0.3123 H   0  0  0  0  0  0  0  0  0  0  0  0
    2.6350    1.1978   -0.5965 H   0  0  0  0  0  0  0  0  0  0  0  0
    2.0146    0.8991    1.0429 H   0  0  0  0  0  0  0  0  0  0  0  0
  1  2  1  0
  2  3  1  0
  2  4  1  0
  4  5  1  0
  5  6  1  0
  6  7  2  0
  6  8  1  0
  8  9  1  0
  9 10  1  0
 10 11  2  0
 11 12  1  0
 12 13  2  0
 13 14  1  0
 13 15  1  0
 15 16  1  0
 15 17  1  0
 15 18  1  0
 18 19  1  0
 19 20  1  0
 20 21  1  0
 21 22  1  0
  8 23  1  0
 23  2  1  0
 14  9  2  0
 20 12  1  0
  1 24  1  0
  1 25  1  0
  1 26  1  0
  3 27  1  0
  3 28  1  0
  3 29  1  0
  4 30  1  0
  4 31  1  0
  5 32  1  0
  5 33  1  0
 10 34  1  0
 11 35  1  0
 14 36  1  0
 16 37  1  0
 16 38  1  0
 16 39  1  0
 17 40  1  0
 17 41  1  0
 17 42  1  0
 18 43  1  0
 18 44  1  0
 19 45  1  0
 19 46  1  0
 20 47  1  0
 21 48  1  0
 21 49  1  0
 22 50  1  0
 23 51  1  0
 23 52  1  0
M  END
>  <smiles>
CC1(C)CCC(=O)N(c2ccc3c(c2)C(C)(C)CCC3CO)C1

$$$$
