mol_f1592767a1ed
     RDKit          3D

 59 60  0  0  0  0  0  0  0  0999 V2000
   -5.9682   -1.7417   -0.9529 C   0  0  0  0  0  0  0  0  0  0  0  0
   -4.4848   -1.6716   -1.2890 C   0  0  0  0  0  0  0  0  0  0  0  0
   -3.5761   -1.7591   -0.0553 C   0  0  0  0  0  0  0  0  0  0  0  0
   -3.7634   -0.6090    0.8349 N   0  0  0  0  0  0  0  0  0  0  0  0
   -2.6653    0.3731    0.7866 C   0  0  0  0  0  0  0  0  0  0  0  0
   -2.8049    1.4138   -0.3314 C   0  0  0  0  0  0  0  0  0  0  0  0
   -2.0496    1.0635   -1.6116 C   0  0  0  0  0  0  0  0  0  0  0  0
   -0.6272    1.3353   -1.5070 N   0  0  0  0  0  0  0  0  0  0  0  0
    0.2956    0.3418   -1.2537 C   0  0  0  0  0  0  0  0  0  0  0  0
   -0.0145   -0.8227   -1.0298 O   0  0  0  0  0  0  0  0  0  0  0  0
    1.7233    0.7611   -1.2123 C   0  0  0  0  0  0  0  0  0  0  0  0
    2.2102    1.7923   -2.0210 C   0  0  0  0  0  0  0  0  0  0  0  0
    3.5551    2.1638   -1.9444 C   0  0  0  0  0  0  0  0  0  0  0  0
    4.0989    3.2439   -2.8335 C   0  0  0  0  0  0  0  0  0  0  0  0
    4.4095    1.4686   -1.0742 C   0  0  0  0  0  0  0  0  0  0  0  0
    3.9522    0.4124   -0.2593 C   0  0  0  0  0  0  0  0  0  0  0  0
    4.9303   -0.3230    0.6748 C   0  0  0  0  0  0  0  0  0  0  0  0
    4.2744   -1.4476    1.5078 C   0  0  0  0  0  0  0  0  0  0  0  0
    5.5493    0.6801    1.6722 C   0  0  0  0  0  0  0  0  0  0  0  0
    6.0562   -0.9707   -0.1598 C   0  0  0  0  0  0  0  0  0  0  0  0
    2.5920    0.0730   -0.3507 C   0  0  0  0  0  0  0  0  0  0  0  0
   -2.7615    1.0041    2.0699 N   0  0  0  0  0  0  0  0  0  0  0  0
   -3.4006    0.2239    3.0001 C   0  0  0  0  0  0  0  0  0  0  0  0
   -3.5156    0.4863    4.1841 O   0  0  0  0  0  0  0  0  0  0  0  0
   -3.8668   -1.0142    2.2594 C   0  0  0  0  0  0  0  0  0  0  0  0
   -5.2851   -1.3879    2.6557 C   0  0  0  0  0  0  0  0  0  0  0  0
   -6.2829   -0.8854   -0.3488 H   0  0  0  0  0  0  0  0  0  0  0  0
   -6.5619   -1.7370   -1.8727 H   0  0  0  0  0  0  0  0  0  0  0  0
   -6.2035   -2.6593   -0.4047 H   0  0  0  0  0  0  0  0  0  0  0  0
   -4.2964   -0.7517   -1.8505 H   0  0  0  0  0  0  0  0  0  0  0  0
   -4.2395   -2.5040   -1.9596 H   0  0  0  0  0  0  0  0  0  0  0  0
   -2.5320   -1.8609   -0.3728 H   0  0  0  0  0  0  0  0  0  0  0  0
   -3.8162   -2.6994    0.4585 H   0  0  0  0  0  0  0  0  0  0  0  0
   -1.6828   -0.1099    0.7817 H   0  0  0  0  0  0  0  0  0  0  0  0
   -2.4578    2.3949    0.0205 H   0  0  0  0  0  0  0  0  0  0  0  0
   -3.8680    1.5467   -0.5727 H   0  0  0  0  0  0  0  0  0  0  0  0
   -2.2011    0.0245   -1.9113 H   0  0  0  0  0  0  0  0  0  0  0  0
   -2.4147    1.6989   -2.4260 H   0  0  0  0  0  0  0  0  0  0  0  0
   -0.3186    2.2937   -1.6014 H   0  0  0  0  0  0  0  0  0  0  0  0
    1.5595    2.2916   -2.7332 H   0  0  0  0  0  0  0  0  0  0  0  0
    3.3256    3.9824   -3.0695 H   0  0  0  0  0  0  0  0  0  0  0  0
    4.4690    2.8088   -3.7669 H   0  0  0  0  0  0  0  0  0  0  0  0
    4.9181    3.7785   -2.3412 H   0  0  0  0  0  0  0  0  0  0  0  0
    5.4595    1.7572   -1.0429 H   0  0  0  0  0  0  0  0  0  0  0  0
    3.4798   -1.0590    2.1554 H   0  0  0  0  0  0  0  0  0  0  0  0
    3.8436   -2.2258    0.8672 H   0  0  0  0  0  0  0  0  0  0  0  0
    5.0092   -1.9372    2.1582 H   0  0  0  0  0  0  0  0  0  0  0  0
    6.1350    1.4575    1.1695 H   0  0  0  0  0  0  0  0  0  0  0  0
    4.7719    1.1823    2.2601 H   0  0  0  0  0  0  0  0  0  0  0  0
    6.2238    0.1750    2.3735 H   0  0  0  0  0  0  0  0  0  0  0  0
    5.6469   -1.6681   -0.9003 H   0  0  0  0  0  0  0  0  0  0  0  0
    6.6508   -0.2273   -0.7019 H   0  0  0  0  0  0  0  0  0  0  0  0
    6.7492   -1.5310    0.4788 H   0  0  0  0  0  0  0  0  0  0  0  0
    2.1747   -0.7356    0.2450 H   0  0  0  0  0  0  0  0  0  0  0  0
   -2.2868    1.8510    2.3454 H   0  0  0  0  0  0  0  0  0  0  0  0
   -3.1597   -1.8175    2.5048 H   0  0  0  0  0  0  0  0  0  0  0  0
   -5.6293   -2.2763    2.1174 H   0  0  0  0  0  0  0  0  0  0  0  0
   -5.3422   -1.6033    3.7283 H   0  0  0  0  0  0  0  0  0  0  0  0
   -5.9865   -0.5705    2.4527 H   0  0  0  0  0  0  0  0  0  0  0  0
  1  2  1  0
  2  3  1  0
  3  4  1  0
  4  5  1  0
  5  6  1  0
  6  7  1  0
  7  8  1  0
  8  9  1  0
  9 10  2  0
  9 11  1  0
 11 12  2  0
 12 13  1  0
 13 14  1  0
 13 15  2  0
 15 16  1  0
 16 17  1  0
 17 18  1  0
 17 19  1  0
 17 20  1  0
 16 21  2  0
  5 22  1  0
 22 23  1  0
 23 24  2  0
 23 25  1  0
 25 26  1  0
 25  4  1  0
 21 11  1  0
  1 27  1  0
  1 28  1  0
  1 29  1  0
  2 30  1  0
  2 31  1  0
  3 32  1  0
  3 33  1  0
  5 34  1  0
  6 35  1  0
  6 36  1  0
  7 37  1  0
  7 38  1  0
  8 39  1  0
 12 40  1  0
 14 41  1  0
 14 42  1  0
 14 43  1  0
 15 44  1  0
 18 45  1  0
 18 46  1  0
 18 47  1  0
 19 48  1  0
 19 49  1  0
 19 50  1  0
 20 51  1  0
 20 52  1  0
 20 53  1  0
 21 54  1  0
 22 55  1  0
 25 56  1  0
 26 57  1  0
 26 58  1  0
 26 59  1  0
M  END
>  <smiles>
CCCN1C(CCNC(=O)c2cc(C)cc(C(C)(C)C)c2)NC(=O)C1C

$$$$
