mol_7c1ca1a29632
     RDKit          3D

 48 50  0  0  0  0  0  0  0  0999 V2000
   -4.4957   -1.8681    0.0228 C   0  0  0  0  0  0  0  0  0  0  0  0
   -4.6737   -0.7297   -0.9723 C   0  0  0  0  0  0  0  0  0  0  0  0
   -3.3500   -0.2216   -1.5508 C   0  0  0  0  0  0  0  0  0  0  0  0
   -2.4717    0.4730   -0.5372 C   0  0  0  0  0  0  0  0  0  0  0  0
   -2.8032    1.7701   -0.0854 C   0  0  0  0  0  0  0  0  0  0  0  0
   -2.0127    2.4386    0.8606 C   0  0  0  0  0  0  0  0  0  0  0  0
   -2.3772    3.7992    1.3627 C   0  0  0  0  0  0  0  0  0  0  0  0
   -0.9052    1.7642    1.3456 C   0  0  0  0  0  0  0  0  0  0  0  0
   -0.5487    0.4996    0.8954 C   0  0  0  0  0  0  0  0  0  0  0  0
   -1.3271   -0.1655   -0.0370 C   0  0  0  0  0  0  0  0  0  0  0  0
    0.7171    0.0788    1.5539 C   0  0  0  0  0  0  0  0  0  0  0  0
    1.9720    0.2693    0.6849 C   0  0  0  0  0  0  0  0  0  0  0  0
    2.0532   -0.6108   -0.5782 C   0  0  0  0  0  0  0  0  0  0  0  0
    1.9610   -2.1250   -0.3283 C   0  0  0  0  0  0  0  0  0  0  0  0
    3.4146   -2.5798   -0.2320 C   0  0  0  0  0  0  0  0  0  0  0  0
    3.8972   -2.3711    1.0947 O   0  0  0  0  0  0  0  0  0  0  0  0
    4.1239   -1.6887   -1.2488 C   0  0  0  0  0  0  0  0  0  0  0  0
    3.3453   -0.4581   -1.2532 N   0  0  0  0  0  0  0  0  0  0  0  0
    3.6887    0.6629   -1.9475 C   0  0  0  0  0  0  0  0  0  0  0  0
    3.0389    1.6871   -2.0629 O   0  0  0  0  0  0  0  0  0  0  0  0
    4.8863    0.5591   -2.5485 O   0  0  0  0  0  0  0  0  0  0  0  0
    0.6954    1.0916    2.7146 C   0  0  0  0  0  0  0  0  0  0  0  0
   -0.0507    2.2589    2.3011 O   0  0  0  0  0  0  0  0  0  0  0  0
   -3.9415   -2.6988   -0.4255 H   0  0  0  0  0  0  0  0  0  0  0  0
   -5.4730   -2.2455    0.3401 H   0  0  0  0  0  0  0  0  0  0  0  0
   -3.9604   -1.5379    0.9182 H   0  0  0  0  0  0  0  0  0  0  0  0
   -5.2974   -1.0893   -1.7996 H   0  0  0  0  0  0  0  0  0  0  0  0
   -5.2250    0.0873   -0.4923 H   0  0  0  0  0  0  0  0  0  0  0  0
   -3.5607    0.4858   -2.3632 H   0  0  0  0  0  0  0  0  0  0  0  0
   -2.8045   -1.0525   -2.0158 H   0  0  0  0  0  0  0  0  0  0  0  0
   -3.6922    2.2595   -0.4798 H   0  0  0  0  0  0  0  0  0  0  0  0
   -3.1292    4.2713    0.7218 H   0  0  0  0  0  0  0  0  0  0  0  0
   -2.7846    3.7298    2.3761 H   0  0  0  0  0  0  0  0  0  0  0  0
   -1.5001    4.4546    1.3717 H   0  0  0  0  0  0  0  0  0  0  0  0
   -1.0586   -1.1620   -0.3728 H   0  0  0  0  0  0  0  0  0  0  0  0
    0.6612   -0.9341    1.9627 H   0  0  0  0  0  0  0  0  0  0  0  0
    2.0456    1.3219    0.3787 H   0  0  0  0  0  0  0  0  0  0  0  0
    2.8542    0.0938    1.3123 H   0  0  0  0  0  0  0  0  0  0  0  0
    1.2722   -0.2959   -1.2799 H   0  0  0  0  0  0  0  0  0  0  0  0
    1.3713   -2.3966    0.5490 H   0  0  0  0  0  0  0  0  0  0  0  0
    1.4991   -2.5976   -1.2048 H   0  0  0  0  0  0  0  0  0  0  0  0
    3.5343   -3.6424   -0.4608 H   0  0  0  0  0  0  0  0  0  0  0  0
    4.3162   -1.4928    1.1298 H   0  0  0  0  0  0  0  0  0  0  0  0
    5.1663   -1.4761   -0.9931 H   0  0  0  0  0  0  0  0  0  0  0  0
    4.0712   -2.1129   -2.2575 H   0  0  0  0  0  0  0  0  0  0  0  0
    4.9733    1.4280   -2.9915 H   0  0  0  0  0  0  0  0  0  0  0  0
    1.6982    1.3989    3.0301 H   0  0  0  0  0  0  0  0  0  0  0  0
    0.1863    0.6697    3.5919 H   0  0  0  0  0  0  0  0  0  0  0  0
  1  2  1  0
  2  3  1  0
  3  4  1  0
  4  5  1  0
  5  6  2  0
  6  7  1  0
  6  8  1  0
  8  9  2  0
  9 10  1  0
  9 11  1  0
 11 12  1  0
 12 13  1  0
 13 14  1  0
 14 15  1  0
 15 16  1  0
 15 17  1  0
 17 18  1  0
 18 19  1  0
 19 20  2  0
 19 21  1  0
 11 22  1  0
 22 23  1  0
 10  4  2  0
 18 13  1  0
 23  8  1  0
  1 24  1  0
  1 25  1  0
  1 26  1  0
  2 27  1  0
  2 28  1  0
  3 29  1  0
  3 30  1  0
  5 31  1  0
  7 32  1  0
  7 33  1  0
  7 34  1  0
 10 35  1  0
 11 36  1  0
 12 37  1  0
 12 38  1  0
 13 39  1  0
 14 40  1  0
 14 41  1  0
 15 42  1  0
 16 43  1  0
 17 44  1  0
 17 45  1  0
 21 46  1  0
 22 47  1  0
 22 48  1  0
M  END
>  <smiles>
CCCc1cc(C)c2c(c1)C(CC1CC(O)CN1C(=O)O)CO2

$$$$
