mol_2252278ac2a7
     RDKit          3D

 50 52  0  0  0  0  0  0  0  0999 V2000
    5.2127    0.9362    0.7702 C   0  0  0  0  0  0  0  0  0  0  0  0
    4.4544    0.6994   -0.5363 C   0  0  0  0  0  0  0  0  0  0  0  0
    5.0140    1.6210   -1.6255 C   0  0  0  0  0  0  0  0  0  0  0  0
    2.9407    0.9359   -0.3896 C   0  0  0  0  0  0  0  0  0  0  0  0
    2.1884    0.0511    0.6184 C   0  0  0  0  0  0  0  0  0  0  0  0
    1.9854   -1.4072    0.1688 C   0  0  0  0  0  0  0  0  0  0  0  0
    0.8978   -2.1281    0.9825 C   0  0  0  0  0  0  0  0  0  0  0  0
   -0.4379   -1.5933    0.7833 N   0  0  0  0  0  0  0  0  0  0  0  0
   -1.1766   -0.8837    1.8111 C   0  0  0  0  0  0  0  0  0  0  0  0
   -2.5344   -0.5962    1.1653 C   0  0  0  0  0  0  0  0  0  0  0  0
   -2.8999    0.8856    1.1163 C   0  0  0  0  0  0  0  0  0  0  0  0
   -4.0691    1.1204    0.1829 C   0  0  0  0  0  0  0  0  0  0  0  0
   -4.8796    2.2507    0.3553 C   0  0  0  0  0  0  0  0  0  0  0  0
   -5.9393    2.4980   -0.5168 C   0  0  0  0  0  0  0  0  0  0  0  0
   -6.1925    1.6264   -1.5734 C   0  0  0  0  0  0  0  0  0  0  0  0
   -5.3840    0.5057   -1.7644 C   0  0  0  0  0  0  0  0  0  0  0  0
   -4.3133    0.2419   -0.8971 C   0  0  0  0  0  0  0  0  0  0  0  0
   -3.4599   -0.9864   -1.1391 C   0  0  0  0  0  0  0  0  0  0  0  0
   -2.3917   -1.1120   -0.1779 N   0  0  0  0  0  0  0  0  0  0  0  0
   -1.1787   -1.7373   -0.3865 C   0  0  0  0  0  0  0  0  0  0  0  0
   -0.8179   -2.3018   -1.4045 O   0  0  0  0  0  0  0  0  0  0  0  0
    3.2398   -2.2191    0.3688 C   0  0  0  0  0  0  0  0  0  0  0  0
    3.8407   -2.3757    1.4197 O   0  0  0  0  0  0  0  0  0  0  0  0
    3.6693   -2.8144   -0.7589 O   0  0  0  0  0  0  0  0  0  0  0  0
    5.0308    1.9445    1.1573 H   0  0  0  0  0  0  0  0  0  0  0  0
    4.9202    0.2185    1.5413 H   0  0  0  0  0  0  0  0  0  0  0  0
    6.2917    0.8241    0.6176 H   0  0  0  0  0  0  0  0  0  0  0  0
    4.6363   -0.3281   -0.8635 H   0  0  0  0  0  0  0  0  0  0  0  0
    4.5123    1.4417   -2.5824 H   0  0  0  0  0  0  0  0  0  0  0  0
    6.0846    1.4433   -1.7734 H   0  0  0  0  0  0  0  0  0  0  0  0
    4.8787    2.6759   -1.3633 H   0  0  0  0  0  0  0  0  0  0  0  0
    2.4613    0.8293   -1.3714 H   0  0  0  0  0  0  0  0  0  0  0  0
    2.7832    1.9815   -0.0916 H   0  0  0  0  0  0  0  0  0  0  0  0
    1.2045    0.5178    0.7436 H   0  0  0  0  0  0  0  0  0  0  0  0
    2.6676    0.0945    1.6025 H   0  0  0  0  0  0  0  0  0  0  0  0
    1.7143   -1.4206   -0.8938 H   0  0  0  0  0  0  0  0  0  0  0  0
    1.1234   -2.1054    2.0556 H   0  0  0  0  0  0  0  0  0  0  0  0
    0.8614   -3.1832    0.6819 H   0  0  0  0  0  0  0  0  0  0  0  0
   -1.2811   -1.5345    2.6853 H   0  0  0  0  0  0  0  0  0  0  0  0
   -0.6318    0.0199    2.0986 H   0  0  0  0  0  0  0  0  0  0  0  0
   -3.3250   -1.1732    1.6622 H   0  0  0  0  0  0  0  0  0  0  0  0
   -3.1401    1.2334    2.1278 H   0  0  0  0  0  0  0  0  0  0  0  0
   -2.0554    1.4810    0.7461 H   0  0  0  0  0  0  0  0  0  0  0  0
   -4.6889    2.9466    1.1690 H   0  0  0  0  0  0  0  0  0  0  0  0
   -6.5658    3.3748   -0.3751 H   0  0  0  0  0  0  0  0  0  0  0  0
   -7.0175    1.8225   -2.2535 H   0  0  0  0  0  0  0  0  0  0  0  0
   -5.5903   -0.1619   -2.5985 H   0  0  0  0  0  0  0  0  0  0  0  0
   -3.0313   -0.9679   -2.1470 H   0  0  0  0  0  0  0  0  0  0  0  0
   -4.0827   -1.8831   -1.0426 H   0  0  0  0  0  0  0  0  0  0  0  0
    4.4712   -3.3089   -0.4903 H   0  0  0  0  0  0  0  0  0  0  0  0
  1  2  1  0
  2  3  1  0
  2  4  1  0
  4  5  1  0
  5  6  1  0
  6  7  1  0
  7  8  1  0
  8  9  1  0
  9 10  1  0
 10 11  1  0
 11 12  1  0
 12 13  2  0
 13 14  1  0
 14 15  2  0
 15 16  1  0
 16 17  2  0
 17 18  1  0
 18 19  1  0
 19 20  1  0
 20 21  2  0
  6 22  1  0
 22 23  2  0
 22 24  1  0
 20  8  1  0
 19 10  1  0
 17 12  1  0
  1 25  1  0
  1 26  1  0
  1 27  1  0
  2 28  1  0
  3 29  1  0
  3 30  1  0
  3 31  1  0
  4 32  1  0
  4 33  1  0
  5 34  1  0
  5 35  1  0
  6 36  1  0
  7 37  1  0
  7 38  1  0
  9 39  1  0
  9 40  1  0
 10 41  1  0
 11 42  1  0
 11 43  1  0
 13 44  1  0
 14 45  1  0
 15 46  1  0
 16 47  1  0
 18 48  1  0
 18 49  1  0
 24 50  1  0
M  END
>  <smiles>
CC(C)CCC(CN1CC2Cc3ccccc3CN2C1=O)C(=O)O

$$$$
