mol_24a83cee3300
     RDKit          3D

 60 63  0  0  0  0  0  0  0  0999 V2000
    6.3346    0.2896    2.5604 C   0  0  0  0  0  0  0  0  0  0  0  0
    5.0978   -0.0943    1.9718 O   0  0  0  0  0  0  0  0  0  0  0  0
    4.8646    0.5322    0.7185 C   0  0  0  0  0  0  0  0  0  0  0  0
    4.2602    1.9173    0.8665 C   0  0  0  0  0  0  0  0  0  0  0  0
    3.7434    2.5794   -0.1153 N   0  0  0  0  0  0  0  0  0  0  0  0
    3.8200    1.8989   -1.4178 C   0  0  0  0  0  0  0  0  0  0  0  0
    3.3307    0.4393   -1.3461 C   0  0  0  0  0  0  0  0  0  0  0  0
    3.7698   -0.2891   -2.6294 C   0  0  0  0  0  0  0  0  0  0  0  0
    1.7922    0.3711   -1.2121 C   0  0  0  0  0  0  0  0  0  0  0  0
    1.5356   -0.8552   -0.3410 C   0  0  0  0  0  0  0  0  0  0  0  0
    0.2100   -0.8525    0.2361 N   0  0  0  0  0  0  0  0  0  0  0  0
   -0.8851   -1.3221   -0.4623 C   0  0  0  0  0  0  0  0  0  0  0  0
   -0.7804   -1.8085   -1.5840 O   0  0  0  0  0  0  0  0  0  0  0  0
   -2.2287   -1.2061    0.2962 C   0  0  0  0  0  0  0  0  0  0  0  0
   -2.1281   -2.1205    1.5284 C   0  0  0  0  0  0  0  0  0  0  0  0
   -3.4192   -1.6729   -0.6421 C   0  0  0  0  0  0  0  0  0  0  0  0
   -4.4892   -0.6017   -0.4591 C   0  0  0  0  0  0  0  0  0  0  0  0
   -5.4360   -0.9607    0.6961 C   0  0  0  0  0  0  0  0  0  0  0  0
   -5.3296   -0.2592   -1.5660 O   0  0  0  0  0  0  0  0  0  0  0  0
   -5.5929    1.1741   -1.4387 C   0  0  0  0  0  0  0  0  0  0  0  0
   -4.6265    1.7353   -0.3757 C   0  0  0  0  0  0  0  0  0  0  0  0
   -3.6143    0.6327   -0.3800 C   0  0  0  0  0  0  0  0  0  0  0  0
   -2.5187    0.3223    0.6184 C   0  0  0  0  0  0  0  0  0  0  0  0
   -2.8219    0.6998    2.0623 C   0  0  0  0  0  0  0  0  0  0  0  0
    2.6325   -0.7430    0.7079 C   0  0  0  0  0  0  0  0  0  0  0  0
    3.8751   -0.3116   -0.0943 C   0  0  0  0  0  0  0  0  0  0  0  0
    7.1708   -0.0281    1.9301 H   0  0  0  0  0  0  0  0  0  0  0  0
    6.3727    1.3710    2.7199 H   0  0  0  0  0  0  0  0  0  0  0  0
    6.4219   -0.2089    3.5295 H   0  0  0  0  0  0  0  0  0  0  0  0
    5.8052    0.6273    0.1606 H   0  0  0  0  0  0  0  0  0  0  0  0
    4.2789    2.3756    1.8683 H   0  0  0  0  0  0  0  0  0  0  0  0
    3.2127    2.4615   -2.1371 H   0  0  0  0  0  0  0  0  0  0  0  0
    4.8548    1.9539   -1.7806 H   0  0  0  0  0  0  0  0  0  0  0  0
    3.4136   -1.3250   -2.6471 H   0  0  0  0  0  0  0  0  0  0  0  0
    3.3763    0.2126   -3.5206 H   0  0  0  0  0  0  0  0  0  0  0  0
    4.8621   -0.3127   -2.7132 H   0  0  0  0  0  0  0  0  0  0  0  0
    1.3999    1.2689   -0.7161 H   0  0  0  0  0  0  0  0  0  0  0  0
    1.2822    0.2973   -2.1792 H   0  0  0  0  0  0  0  0  0  0  0  0
    1.6682   -1.7721   -0.9287 H   0  0  0  0  0  0  0  0  0  0  0  0
    0.0765   -0.4182    1.1395 H   0  0  0  0  0  0  0  0  0  0  0  0
   -1.8658   -3.1422    1.2281 H   0  0  0  0  0  0  0  0  0  0  0  0
   -3.0658   -2.1789    2.0849 H   0  0  0  0  0  0  0  0  0  0  0  0
   -1.3533   -1.7874    2.2269 H   0  0  0  0  0  0  0  0  0  0  0  0
   -3.7838   -2.6722   -0.3776 H   0  0  0  0  0  0  0  0  0  0  0  0
   -3.1338   -1.7211   -1.6992 H   0  0  0  0  0  0  0  0  0  0  0  0
   -6.0763   -1.7986    0.3930 H   0  0  0  0  0  0  0  0  0  0  0  0
   -4.9267   -1.2655    1.6081 H   0  0  0  0  0  0  0  0  0  0  0  0
   -6.1209   -0.1454    0.9487 H   0  0  0  0  0  0  0  0  0  0  0  0
   -5.4185    1.6266   -2.4199 H   0  0  0  0  0  0  0  0  0  0  0  0
   -6.6402    1.3235   -1.1595 H   0  0  0  0  0  0  0  0  0  0  0  0
   -5.1260    1.8485    0.5914 H   0  0  0  0  0  0  0  0  0  0  0  0
   -4.2216    2.7099   -0.6620 H   0  0  0  0  0  0  0  0  0  0  0  0
   -3.0894    0.7488   -1.3475 H   0  0  0  0  0  0  0  0  0  0  0  0
   -1.6543    0.9385    0.3364 H   0  0  0  0  0  0  0  0  0  0  0  0
   -3.0291    1.7729    2.1379 H   0  0  0  0  0  0  0  0  0  0  0  0
   -3.6790    0.1736    2.4820 H   0  0  0  0  0  0  0  0  0  0  0  0
   -1.9571    0.4943    2.7017 H   0  0  0  0  0  0  0  0  0  0  0  0
    2.7932   -1.6921    1.2307 H   0  0  0  0  0  0  0  0  0  0  0  0
    2.3663    0.0036    1.4669 H   0  0  0  0  0  0  0  0  0  0  0  0
    4.3904   -1.2348   -0.3946 H   0  0  0  0  0  0  0  0  0  0  0  0
  1  2  1  0
  2  3  1  0
  3  4  1  0
  4  5  2  0
  5  6  1  0
  6  7  1  0
  7  8  1  0
  7  9  1  0
  9 10  1  0
 10 11  1  0
 11 12  1  0
 12 13  2  0
 12 14  1  0
 14 15  1  0
 14 16  1  0
 16 17  1  0
 17 18  1  0
 17 19  1  0
 19 20  1  0
 20 21  1  0
 21 22  1  0
 22 23  1  0
 23 24  1  0
 10 25  1  0
 25 26  1  0
 26  3  1  0
 26  7  1  0
 23 14  1  0
 22 17  1  0
  1 27  1  0
  1 28  1  0
  1 29  1  0
  3 30  1  0
  4 31  1  0
  6 32  1  0
  6 33  1  0
  8 34  1  0
  8 35  1  0
  8 36  1  0
  9 37  1  0
  9 38  1  0
 10 39  1  0
 11 40  1  0
 15 41  1  0
 15 42  1  0
 15 43  1  0
 16 44  1  0
 16 45  1  0
 18 46  1  0
 18 47  1  0
 18 48  1  0
 20 49  1  0
 20 50  1  0
 21 51  1  0
 21 52  1  0
 22 53  1  0
 23 54  1  0
 24 55  1  0
 24 56  1  0
 24 57  1  0
 25 58  1  0
 25 59  1  0
 26 60  1  0
M  END
>  <smiles>
COC1C=NCC2(C)CC(NC(=O)C3(C)CC4(C)OCCC4C3C)CC12

$$$$
