mol_7ca852572adb
     RDKit          3D

 43 44  0  0  0  0  0  0  0  0999 V2000
   -5.3901    0.1892   -2.6730 C   0  0  0  0  0  0  0  0  0  0  0  0
   -4.1099    0.0832   -1.8899 C   0  0  0  0  0  0  0  0  0  0  0  0
   -3.2886   -0.8035   -2.0948 O   0  0  0  0  0  0  0  0  0  0  0  0
   -3.9489    1.0850   -0.9608 N   0  0  0  0  0  0  0  0  0  0  0  0
   -2.7675    1.1645   -0.1159 C   0  0  0  0  0  0  0  0  0  0  0  0
   -2.8588    0.3240    1.1323 C   0  0  0  0  0  0  0  0  0  0  0  0
   -4.0971    0.1870    1.7676 C   0  0  0  0  0  0  0  0  0  0  0  0
   -4.3507   -0.6082    2.8322 N   0  0  0  0  0  0  0  0  0  0  0  0
   -3.3176   -1.3295    3.2944 C   0  0  0  0  0  0  0  0  0  0  0  0
   -2.0403   -1.2552    2.7686 C   0  0  0  0  0  0  0  0  0  0  0  0
   -1.7864   -0.3780    1.7051 C   0  0  0  0  0  0  0  0  0  0  0  0
   -0.4325   -0.3154    1.2951 N   0  0  0  0  0  0  0  0  0  0  0  0
    0.2211    0.7623    0.7292 C   0  0  0  0  0  0  0  0  0  0  0  0
   -0.2160    1.9048    0.6509 O   0  0  0  0  0  0  0  0  0  0  0  0
    1.6138    0.4959    0.2642 C   0  0  0  0  0  0  0  0  0  0  0  0
    2.5302    1.5549    0.2546 C   0  0  0  0  0  0  0  0  0  0  0  0
    3.8489    1.3557   -0.1726 C   0  0  0  0  0  0  0  0  0  0  0  0
    4.8146    2.5054   -0.2033 C   0  0  0  0  0  0  0  0  0  0  0  0
    4.2397    0.0868   -0.6250 C   0  0  0  0  0  0  0  0  0  0  0  0
    3.3275   -0.9776   -0.6373 C   0  0  0  0  0  0  0  0  0  0  0  0
    3.6983   -2.3503   -1.0959 C   0  0  0  0  0  0  0  0  0  0  0  0
    2.9398   -3.2801   -0.8103 O   0  0  0  0  0  0  0  0  0  0  0  0
    4.9984   -2.5287   -1.8629 C   0  0  0  0  0  0  0  0  0  0  0  0
    5.1425   -3.7718   -2.3961 F   0  0  0  0  0  0  0  0  0  0  0  0
    6.0900   -2.3241   -1.0723 F   0  0  0  0  0  0  0  0  0  0  0  0
    5.1151   -1.6534   -2.9010 F   0  0  0  0  0  0  0  0  0  0  0  0
    2.0120   -0.7658   -0.1930 C   0  0  0  0  0  0  0  0  0  0  0  0
   -5.2363    0.8563   -3.5253 H   0  0  0  0  0  0  0  0  0  0  0  0
   -6.1980    0.5805   -2.0481 H   0  0  0  0  0  0  0  0  0  0  0  0
   -5.6799   -0.8017   -3.0333 H   0  0  0  0  0  0  0  0  0  0  0  0
   -4.6386    1.8201   -0.8907 H   0  0  0  0  0  0  0  0  0  0  0  0
   -2.6483    2.2174    0.1587 H   0  0  0  0  0  0  0  0  0  0  0  0
   -1.9283    0.8501   -0.7418 H   0  0  0  0  0  0  0  0  0  0  0  0
   -4.9733    0.7221    1.4104 H   0  0  0  0  0  0  0  0  0  0  0  0
   -3.5425   -1.9816    4.1331 H   0  0  0  0  0  0  0  0  0  0  0  0
   -1.2531   -1.8484    3.2207 H   0  0  0  0  0  0  0  0  0  0  0  0
    0.1498   -1.0878    1.5952 H   0  0  0  0  0  0  0  0  0  0  0  0
    2.2106    2.5431    0.5861 H   0  0  0  0  0  0  0  0  0  0  0  0
    4.5826    3.2322    0.5823 H   0  0  0  0  0  0  0  0  0  0  0  0
    5.8391    2.1588   -0.0321 H   0  0  0  0  0  0  0  0  0  0  0  0
    4.7674    3.0069   -1.1748 H   0  0  0  0  0  0  0  0  0  0  0  0
    5.2669   -0.0414   -0.9614 H   0  0  0  0  0  0  0  0  0  0  0  0
    1.2947   -1.5838   -0.2413 H   0  0  0  0  0  0  0  0  0  0  0  0
  1  2  1  0
  2  3  2  0
  2  4  1  0
  4  5  1  0
  5  6  1  0
  6  7  2  0
  7  8  1  0
  8  9  2  0
  9 10  1  0
 10 11  2  0
 11 12  1  0
 12 13  1  0
 13 14  2  0
 13 15  1  0
 15 16  1  0
 16 17  2  0
 17 18  1  0
 17 19  1  0
 19 20  2  0
 20 21  1  0
 21 22  2  0
 21 23  1  0
 23 24  1  0
 23 25  1  0
 23 26  1  0
 20 27  1  0
 11  6  1  0
 27 15  2  0
  1 28  1  0
  1 29  1  0
  1 30  1  0
  4 31  1  0
  5 32  1  0
  5 33  1  0
  7 34  1  0
  9 35  1  0
 10 36  1  0
 12 37  1  0
 16 38  1  0
 18 39  1  0
 18 40  1  0
 18 41  1  0
 19 42  1  0
 27 43  1  0
M  END
>  <smiles>
CC(=O)NCc1cnccc1NC(=O)c1cc(C)cc(C(=O)C(F)(F)F)c1

$$$$
