mol_5663b05ce168
     RDKit          3D

 45 47  0  0  0  0  0  0  0  0999 V2000
    6.9949   -0.2605    1.2827 O   0  0  0  0  0  0  0  0  0  0  0  0
    5.8819   -0.3084    0.7806 C   0  0  0  0  0  0  0  0  0  0  0  0
    5.4071   -1.4820    0.3098 O   0  0  0  0  0  0  0  0  0  0  0  0
    4.9661    0.8849    0.5432 C   0  0  0  0  0  0  0  0  0  0  0  0
    3.6531    0.5093    0.0430 N   0  0  0  0  0  0  0  0  0  0  0  0
    2.6089    0.2875    0.9005 C   0  0  0  0  0  0  0  0  0  0  0  0
    2.6871    0.4391    2.1141 O   0  0  0  0  0  0  0  0  0  0  0  0
    1.3531   -0.1745    0.2466 C   0  0  0  0  0  0  0  0  0  0  0  0
    0.5049   -0.9335    0.9629 C   0  0  0  0  0  0  0  0  0  0  0  0
   -0.7659   -1.4041    0.3133 C   0  0  0  0  0  0  0  0  0  0  0  0
   -1.6711   -2.1851    1.2676 C   0  0  0  0  0  0  0  0  0  0  0  0
   -2.8990   -2.6640    0.5254 C   0  0  0  0  0  0  0  0  0  0  0  0
   -3.3456   -3.7985    0.6953 O   0  0  0  0  0  0  0  0  0  0  0  0
   -3.6295   -1.6575   -0.3366 C   0  0  0  0  0  0  0  0  0  0  0  0
   -2.6638   -0.8453   -1.1979 C   0  0  0  0  0  0  0  0  0  0  0  0
   -1.4949   -0.2105   -0.3877 C   0  0  0  0  0  0  0  0  0  0  0  0
   -2.0496    0.8102    0.6530 C   0  0  0  0  0  0  0  0  0  0  0  0
   -2.7756    2.0016    0.0236 C   0  0  0  0  0  0  0  0  0  0  0  0
   -2.1065    2.5155   -1.2457 C   0  0  0  0  0  0  0  0  0  0  0  0
   -0.6539    2.0798   -1.3303 C   0  0  0  0  0  0  0  0  0  0  0  0
   -0.5019    0.5402   -1.3683 C   0  0  0  0  0  0  0  0  0  0  0  0
    1.0006    0.1887   -1.1680 C   0  0  0  0  0  0  0  0  0  0  0  0
    6.0970   -2.1305    0.5629 H   0  0  0  0  0  0  0  0  0  0  0  0
    4.8635    1.4363    1.4823 H   0  0  0  0  0  0  0  0  0  0  0  0
    5.4266    1.5217   -0.2174 H   0  0  0  0  0  0  0  0  0  0  0  0
    3.5872    0.2091   -0.9184 H   0  0  0  0  0  0  0  0  0  0  0  0
    0.7345   -1.2225    1.9863 H   0  0  0  0  0  0  0  0  0  0  0  0
   -0.4644   -2.1221   -0.4669 H   0  0  0  0  0  0  0  0  0  0  0  0
   -1.9870   -1.5941    2.1328 H   0  0  0  0  0  0  0  0  0  0  0  0
   -1.1382   -3.0645    1.6495 H   0  0  0  0  0  0  0  0  0  0  0  0
   -4.3253   -2.1972   -0.9887 H   0  0  0  0  0  0  0  0  0  0  0  0
   -4.2246   -1.0121    0.3167 H   0  0  0  0  0  0  0  0  0  0  0  0
   -2.2428   -1.5135   -1.9621 H   0  0  0  0  0  0  0  0  0  0  0  0
   -3.2303   -0.0852   -1.7456 H   0  0  0  0  0  0  0  0  0  0  0  0
   -1.2214    1.1992    1.2600 H   0  0  0  0  0  0  0  0  0  0  0  0
   -2.7318    0.3416    1.3691 H   0  0  0  0  0  0  0  0  0  0  0  0
   -3.8165    1.7380   -0.1986 H   0  0  0  0  0  0  0  0  0  0  0  0
   -2.8233    2.8087    0.7651 H   0  0  0  0  0  0  0  0  0  0  0  0
   -2.6479    2.1494   -2.1261 H   0  0  0  0  0  0  0  0  0  0  0  0
   -2.1750    3.6090   -1.2796 H   0  0  0  0  0  0  0  0  0  0  0  0
   -0.1012    2.4984   -0.4791 H   0  0  0  0  0  0  0  0  0  0  0  0
   -0.2002    2.5091   -2.2324 H   0  0  0  0  0  0  0  0  0  0  0  0
   -0.7466    0.2392   -2.3971 H   0  0  0  0  0  0  0  0  0  0  0  0
    1.6166    1.0193   -1.5317 H   0  0  0  0  0  0  0  0  0  0  0  0
    1.2507   -0.6703   -1.8056 H   0  0  0  0  0  0  0  0  0  0  0  0
  1  2  2  0
  2  3  1  0
  2  4  1  0
  4  5  1  0
  5  6  1  0
  6  7  2  0
  6  8  1  0
  8  9  2  0
  9 10  1  0
 10 11  1  0
 11 12  1  0
 12 13  2  0
 12 14  1  0
 14 15  1  0
 15 16  1  0
 16 17  1  0
 17 18  1  0
 18 19  1  0
 19 20  1  0
 20 21  1  0
 21 22  1  0
 22  8  1  0
 16 10  1  0
 21 16  1  0
  3 23  1  0
  4 24  1  0
  4 25  1  0
  5 26  1  0
  9 27  1  0
 10 28  1  0
 11 29  1  0
 11 30  1  0
 14 31  1  0
 14 32  1  0
 15 33  1  0
 15 34  1  0
 17 35  1  0
 17 36  1  0
 18 37  1  0
 18 38  1  0
 19 39  1  0
 19 40  1  0
 20 41  1  0
 20 42  1  0
 21 43  1  0
 22 44  1  0
 22 45  1  0
M  END
>  <smiles>
O=C(O)CNC(=O)C1=CC2CC(=O)CCC23CCCCC3C1

$$$$
