
     RDKit          3D

 25 27  0  0  0  0  0  0  0  0999 V2000
   21.6630  171.5180   16.7070 C   0  0  0  0  0  0  0  0  0  0  0  0
   17.9160  177.2210   19.6950 C   0  0  0  0  0  0  0  0  0  0  0  0
   23.7560  172.5250   16.0740 C   0  0  0  0  0  0  0  0  0  0  0  0
   24.0820  171.3470   15.4400 C   0  0  0  0  0  0  0  0  0  0  0  0
   23.2480  170.2480   15.4220 C   0  0  0  0  0  0  0  0  0  0  0  0
   21.9960  170.3140   16.0740 C   0  0  0  0  0  0  0  0  0  0  0  0
   24.1570  168.0690   15.3390 C   0  0  0  0  0  0  0  0  0  0  0  0
   23.9100  166.8680   14.4090 C   0  0  0  0  0  0  0  0  0  0  0  0
   25.3840  171.2290   14.7260 C   0  0  0  0  0  0  0  0  0  0  0  0
   25.3280  171.8710   13.4000 C   0  0  0  0  0  0  0  0  0  0  0  0
   24.6240  171.0140   12.3830 C   0  0  0  0  0  0  0  0  0  0  0  0
   22.5430  172.6040   16.6950 C   0  0  0  0  0  0  0  0  0  0  0  0
   22.2140  173.8400   17.3540 C   0  0  0  0  0  0  0  0  0  0  0  0
   20.9150  173.7840   18.0200 C   0  0  0  0  0  0  0  0  0  0  0  0
   20.1750  172.6770   17.9050 C   0  0  0  0  0  0  0  0  0  0  0  0
   18.8590  172.4070   18.4720 C   0  0  0  0  0  0  0  0  0  0  0  0
   20.5050  175.0570   18.6070 C   0  0  0  0  0  0  0  0  0  0  0  0
   19.2180  176.6260   19.2820 C   0  0  0  0  0  0  0  0  0  0  0  0
   20.3680  177.3490   19.3300 C   0  0  0  0  0  0  0  0  0  0  0  0
   19.2920  175.3850   18.8740 N   0  0  0  0  0  0  0  0  0  0  0  0
   20.4810  171.5570   17.3210 O   0  0  0  0  0  0  0  0  0  0  0  0
   22.9830  174.7820   17.3380 O   0  0  0  0  0  0  0  0  0  0  0  0
   23.7290  169.1860   14.7440 O   0  0  0  0  0  0  0  0  0  0  0  0
   24.6640  168.0100   16.4460 O   0  0  0  0  0  0  0  0  0  0  0  0
   21.5930  176.3810   18.7960 S   0  0  0  0  0  0  0  0  0  0  0  0
  4  3  2  0
  5  4  1  0
  6  1  1  0
  6  5  2  0
  8  7  1  0
  9  4  1  0
 10  9  1  0
 11 10  1  0
 12  1  2  0
 12  3  1  0
 13 12  1  0
 14 13  1  0
 15 14  2  0
 16 15  1  0
 17 14  1  0
 18  2  1  0
 19 18  2  0
 20 18  1  0
 20 17  2  0
 21 15  1  0
 21  1  1  0
 22 13  2  0
 23  7  1  0
 23  5  1  0
 24  7  2  0
 25 19  1  0
 25 17  1  0
M  END
$$$$
