
     RDKit          3D

 23 25  0  0  0  0  0  0  0  0999 V2000
  -31.4913   11.5976    3.3915 C   0  0  0  0  0  0  0  0  0  0  0  0
  -31.0680   10.7292    4.5870 C   0  0  2  0  0  0  0  0  0  0  0  0
  -31.3019    9.2393    4.2237 C   0  0  0  0  0  0  0  0  0  0  0  0
  -30.4396    8.2570    4.9641 C   0  0  0  0  0  0  0  0  0  0  0  0
  -30.8849    7.2740    5.8286 C   0  0  0  0  0  0  0  0  0  0  0  0
  -29.8026    6.5819    6.2969 N   0  0  0  0  0  0  0  0  0  0  0  0
  -28.6476    7.0769    5.7398 C   0  0  0  0  0  0  0  0  0  0  0  0
  -27.3182    6.6816    5.9294 C   0  0  0  0  0  0  0  0  0  0  0  0
  -26.3310    7.3669    5.2164 C   0  0  0  0  0  0  0  0  0  0  0  0
  -26.6635    8.4010    4.3454 C   0  0  0  0  0  0  0  0  0  0  0  0
  -27.9987    8.7839    4.1689 C   0  0  0  0  0  0  0  0  0  0  0  0
  -29.0148    8.1178    4.8853 C   0  0  0  0  0  0  0  0  0  0  0  0
  -31.8431   11.2078    5.7455 N   0  0  0  0  0  0  0  0  0  0  0  0
  -31.4431   10.6574    7.0534 C   0  0  0  0  0  0  0  0  0  0  0  0
  -30.0006   10.9844    7.5165 C   0  0  1  0  0  0  0  0  0  0  0  0
  -29.8178   12.4035    7.5609 O   0  0  0  0  0  0  0  0  0  0  0  0
  -29.7071   10.4062    8.8844 C   0  0  0  0  0  0  0  0  0  0  0  0
  -30.2359   10.9779   10.0521 C   0  0  0  0  0  0  0  0  0  0  0  0
  -29.9853   10.4071   11.3022 C   0  0  0  0  0  0  0  0  0  0  0  0
  -29.2029    9.2566   11.4009 C   0  0  0  0  0  0  0  0  0  0  0  0
  -28.6703    8.6841   10.2479 C   0  0  0  0  0  0  0  0  0  0  0  0
  -27.7170    7.2550   10.3604 Cl  0  0  0  0  0  0  0  0  0  0  0  0
  -28.9148    9.2530    8.9987 C   0  0  0  0  0  0  0  0  0  0  0  0
  2  1  1  6
  2  3  1  0
  3  4  1  0
  4  5  2  0
  5  6  1  0
  6  7  1  0
  7  8  2  0
  8  9  1  0
  9 10  2  0
 10 11  1  0
 11 12  2  0
  2 13  1  0
 13 14  1  0
 14 15  1  0
 15 16  1  1
 15 17  1  0
 17 18  2  0
 18 19  1  0
 19 20  2  0
 20 21  1  0
 21 22  1  0
 21 23  2  0
 12  4  1  0
 23 17  1  0
 12  7  1  0
M  END
$$$$
