
     RDKit          3D

 33 38  0  0  0  0  0  0  0  0999 V2000
   -2.0934   12.4082   17.3581 N   0  0  0  0  0  0  0  0  0  0  0  0
   -0.9483   11.6667   17.5248 C   0  0  0  0  0  0  0  0  0  0  0  0
   -0.3340   11.1341   16.4862 N   0  0  0  0  0  0  0  0  0  0  0  0
    0.7965   10.4117   16.7695 C   0  0  0  0  0  0  0  0  0  0  0  0
    1.3889   10.1602   17.9874 C   0  0  0  0  0  0  0  0  0  0  0  0
    2.5157    9.3878   17.7570 C   0  0  0  0  0  0  0  0  0  0  0  0
    2.6699    9.1422   16.4477 N   0  0  0  0  0  0  0  0  0  0  0  0
    1.5957    9.7543   15.8663 N   0  0  0  0  0  0  0  0  0  0  0  0
    1.4177    9.7039   14.4240 C   0  0  0  0  0  0  0  0  0  0  0  0
    0.4657    8.6053   14.0204 C   0  0  0  0  0  0  0  0  0  0  0  0
   -0.8601    8.8985   13.6798 C   0  0  0  0  0  0  0  0  0  0  0  0
   -1.7381    7.8742   13.3178 C   0  0  0  0  0  0  0  0  0  0  0  0
   -1.3113    6.5447   13.2866 C   0  0  0  0  0  0  0  0  0  0  0  0
   -2.2752    5.6450   12.9246 O   0  0  0  0  0  0  0  0  0  0  0  0
   -1.8656    4.3186   12.5785 C   0  0  0  0  0  0  0  0  0  0  0  0
   -1.7769    3.3828   13.7639 C   0  0  0  0  0  0  0  0  0  0  0  0
   -2.5911    3.5521   14.8928 C   0  0  0  0  0  0  0  0  0  0  0  0
   -2.5138    2.6613   15.9647 C   0  0  0  0  0  0  0  0  0  0  0  0
   -1.6312    1.5844   15.9154 C   0  0  0  0  0  0  0  0  0  0  0  0
   -0.8280    1.3947   14.7930 C   0  0  0  0  0  0  0  0  0  0  0  0
   -0.9036    2.2853   13.7204 C   0  0  0  0  0  0  0  0  0  0  0  0
    0.0021    6.2443   13.6434 C   0  0  0  0  0  0  0  0  0  0  0  0
    0.8848    7.2677   14.0059 C   0  0  0  0  0  0  0  0  0  0  0  0
    0.6595   10.7728   19.1624 C   0  0  0  0  0  0  0  0  0  0  0  0
    0.8602   10.7682   20.4534 N   0  0  0  0  0  0  0  0  0  0  0  0
   -0.2200   11.5053   20.9127 C   0  0  0  0  0  0  0  0  0  0  0  0
   -0.4414   11.7869   22.4351 C   0  0  0  0  0  0  0  0  0  0  0  0
    0.3832   11.3550   23.4563 C   0  0  0  0  0  0  0  0  0  0  0  0
   -0.1823   11.8280   24.6652 C   0  0  0  0  0  0  0  0  0  0  0  0
   -1.3163   12.5184   24.3096 C   0  0  0  0  0  0  0  0  0  0  0  0
   -1.4832   12.4996   22.9626 O   0  0  0  0  0  0  0  0  0  0  0  0
   -1.0641   11.9535   19.9635 N   0  0  0  0  0  0  0  0  0  0  0  0
   -0.4621   11.4844   18.8509 N   0  0  0  0  0  0  0  0  0  0  0  0
  1  2  1  0
  2  3  2  0
  3  4  1  0
  4  5  2  0
  5  6  1  0
  6  7  2  0
  7  8  1  0
  8  9  1  0
  9 10  1  0
 10 11  1  0
 11 12  2  0
 12 13  1  0
 13 14  1  0
 14 15  1  0
 15 16  1  0
 16 17  2  0
 17 18  1  0
 18 19  2  0
 19 20  1  0
 20 21  2  0
 13 22  2  0
 22 23  1  0
  5 24  1  0
 24 25  2  0
 25 26  1  0
 26 27  1  0
 27 28  2  0
 28 29  1  0
 29 30  2  0
 30 31  1  0
 26 32  2  0
 32 33  1  0
 33  2  1  0
  8  4  1  0
 23 10  2  0
 33 24  1  0
 21 16  1  0
 31 27  1  0
M  END
$$$$
