
     RDKit          3D

 40 42  0  0  0  0  0  0  0  0999 V2000
  -32.5757   16.4594    8.8338 C   0  0  0  0  0  0  0  0  0  0  0  0
  -31.7975   15.1566    9.0503 C   0  0  0  0  0  0  0  0  0  0  0  0
  -32.1437   14.1688    7.9369 C   0  0  0  0  0  0  0  0  0  0  0  0
  -30.2878   15.4734    9.1499 C   0  0  0  0  0  0  0  0  0  0  0  0
  -29.3444   14.2988    9.4572 C   0  0  2  0  0  0  0  0  0  0  0  0
  -29.1546   13.4120    8.3112 N   0  0  0  0  0  0  0  0  0  0  0  0
  -28.2814   13.7175    7.2937 C   0  0  0  0  0  0  0  0  0  0  0  0
  -27.6293   14.7533    7.2494 O   0  0  0  0  0  0  0  0  0  0  0  0
  -28.1285   12.6862    6.2351 C   0  0  0  0  0  0  0  0  0  0  0  0
  -26.8902   12.5453    5.6082 C   0  0  0  0  0  0  0  0  0  0  0  0
  -26.7056   11.5677    4.6207 C   0  0  0  0  0  0  0  0  0  0  0  0
  -27.7504   10.7221    4.2173 C   0  0  0  0  0  0  0  0  0  0  0  0
  -27.5938    9.7050    3.2619 N   0  0  0  0  0  0  0  0  0  0  0  0
  -26.2429    9.3171    2.8469 C   0  0  0  0  0  0  0  0  0  0  0  0
  -26.2541    7.8816    2.3101 C   0  0  0  0  0  0  0  0  0  0  0  0
  -27.5138    7.5159    1.4972 C   0  0  0  0  0  0  0  0  0  0  0  0
  -28.4266    6.5166    2.2531 C   0  0  0  0  0  0  0  0  0  0  0  0
  -29.0320    7.0836    3.4553 N   0  0  0  0  0  0  0  0  0  0  0  0
  -29.4886    6.0523    4.3967 C   0  0  0  0  0  0  0  0  0  0  0  0
  -30.2482    6.6884    5.5866 C   0  0  2  0  0  0  0  0  0  0  0  0
  -29.3957    7.5971    6.2930 O   0  0  0  0  0  0  0  0  0  0  0  0
  -30.7643    5.6378    6.5485 C   0  0  0  0  0  0  0  0  0  0  0  0
  -32.0044    5.0199    6.3119 C   0  0  0  0  0  0  0  0  0  0  0  0
  -32.4983    4.0518    7.1893 C   0  0  0  0  0  0  0  0  0  0  0  0
  -31.7601    3.7034    8.3135 C   0  0  0  0  0  0  0  0  0  0  0  0
  -32.3070    2.7918    9.1724 O   0  0  0  0  0  0  0  0  0  0  0  0
  -30.5117    4.2840    8.5525 C   0  0  0  0  0  0  0  0  0  0  0  0
  -29.6922    3.9116    9.6668 N   0  0  0  0  0  0  0  0  0  0  0  0
  -30.1553    4.4655   11.1894 S   0  0  0  0  0  0  0  0  0  0  0  0
  -29.7585    6.2016   11.1150 C   0  0  0  0  0  0  0  0  0  0  0  0
  -29.2568    3.8331   12.1307 O   0  0  0  0  0  0  0  0  0  0  0  0
  -31.5880    4.2849   11.3114 O   0  0  0  0  0  0  0  0  0  0  0  0
  -30.0168    5.2441    7.6712 C   0  0  0  0  0  0  0  0  0  0  0  0
  -28.2402    8.7837    1.0293 C   0  0  0  0  0  0  0  0  0  0  0  0
  -28.5861    9.7588    2.1611 C   0  0  0  0  0  0  0  0  0  0  0  0
  -28.9969   10.9090    4.8440 C   0  0  0  0  0  0  0  0  0  0  0  0
  -29.1906   11.8725    5.8414 C   0  0  0  0  0  0  0  0  0  0  0  0
  -29.8133   13.4719   10.6526 C   0  0  0  0  0  0  0  0  0  0  0  0
  -30.1532   12.2970   10.6229 O   0  0  0  0  0  0  0  0  0  0  0  0
  -29.8216   14.1587   11.8119 O   0  0  0  0  0  0  0  0  0  0  0  0
  1  2  1  0
  2  3  1  0
  2  4  1  0
  5  4  1  6
  5  6  1  0
  6  7  1  0
  7  8  2  0
  7  9  1  0
  9 10  1  0
 10 11  2  0
 11 12  1  0
 12 13  1  0
 13 14  1  0
 14 15  1  0
 15 16  1  0
 16 17  1  0
 17 18  1  0
 18 19  1  0
 19 20  1  0
 20 21  1  1
 20 22  1  0
 22 23  1  0
 23 24  2  0
 24 25  1  0
 25 26  1  0
 25 27  2  0
 27 28  1  0
 28 29  1  0
 29 30  1  0
 29 31  2  0
 29 32  2  0
 27 33  1  0
 16 34  1  0
 34 35  1  0
 12 36  2  0
 36 37  1  0
  5 38  1  0
 38 39  2  0
 38 40  1  0
 37  9  2  0
 35 13  1  0
 33 22  2  0
M  END
$$$$
