lig_005
     RDKit          3D

 34 37  0  0  0  0  0  0  0  0999 V2000
   20.4400   17.8080   10.7640 N   0  0  0  0  0  0  0  0  0  0  0  0
   19.4170   18.4730    9.9370 C   0  0  0  0  0  0  0  0  0  0  0  0
   18.0600   18.7870   10.5960 C   0  0  0  0  0  0  0  0  0  0  0  0
   18.1960   22.5590   12.7120 C   0  0  0  0  0  0  0  0  0  0  0  0
   18.0460   21.3580   13.4120 C   0  0  0  0  0  0  0  0  0  0  0  0
   17.9980   20.1410   12.7280 C   0  0  0  0  0  0  0  0  0  0  0  0
   18.0940   20.1060   11.3340 C   0  0  0  0  0  0  0  0  0  0  0  0
   18.2500   21.3100   10.6300 C   0  0  0  0  0  0  0  0  0  0  0  0
   18.3000   22.5360   11.3070 C   0  0  0  0  0  0  0  0  0  0  0  0
   17.9070   23.8910   14.6750 C   0  0  0  0  0  0  0  0  0  0  0  0
   18.2540   23.7990   13.3010 O   0  0  0  0  0  0  0  0  0  0  0  0
   18.4500   23.7550   10.6930 O   0  0  0  0  0  0  0  0  0  0  0  0
   17.3480   24.2610    9.9520 C   0  0  0  0  0  0  0  0  0  0  0  0
   21.6540   18.6080   10.9600 C   0  0  0  0  0  0  0  0  0  0  0  0
   21.6570   19.4130   12.2690 C   0  0  0  0  0  0  0  0  0  0  0  0
   21.6980   20.9280   12.0310 C   0  0  0  0  0  0  0  0  0  0  0  0
   21.9650   21.7370   13.2730 C   0  0  0  0  0  0  0  0  0  0  0  0
   22.4130   21.1190   14.4490 C   0  0  0  0  0  0  0  0  0  0  0  0
   22.6510   21.8750   15.5990 C   0  0  0  0  0  0  0  0  0  0  0  0
   22.4440   23.2550   15.5890 C   0  0  0  0  0  0  0  0  0  0  0  0
   21.9940   23.8790   14.4280 C   0  0  0  0  0  0  0  0  0  0  0  0
   21.7590   23.1210   13.2850 C   0  0  0  0  0  0  0  0  0  0  0  0
   21.3110   23.7390   12.1820 F   0  0  0  0  0  0  0  0  0  0  0  0
   20.6420   16.3890   10.4390 C   0  0  0  0  0  0  0  0  0  0  0  0
   22.0290   15.7940   10.7250 C   0  0  0  0  0  0  0  0  0  0  0  0
   22.6800   15.2730    9.4630 C   0  0  0  0  0  0  0  0  0  0  0  0
   22.5910   16.0110    8.2600 C   0  0  0  0  0  0  0  0  0  0  0  0
   23.1730   15.5360    7.0800 C   0  0  0  0  0  0  0  0  0  0  0  0
   23.8280   14.3250    7.1320 C   0  0  0  0  0  0  0  0  0  0  0  0
   23.9150   13.5980    8.2950 C   0  0  0  0  0  0  0  0  0  0  0  0
   23.3530   14.0400    9.4730 C   0  0  0  0  0  0  0  0  0  0  0  0
   24.6000   12.4340    8.1290 O   0  0  0  0  0  0  0  0  0  0  0  0
   24.9350   12.5150    6.7280 C   0  0  0  0  0  0  0  0  0  0  0  0
   24.4480   13.7120    6.0880 O   0  0  0  0  0  0  0  0  0  0  0  0
  1 14  1  0
  2  3  1  0
  2  1  1  0
  3  7  1  0
  4 11  1  0
  4  5  1  0
  6  5  2  0
  7  6  1  0
  8  9  1  0
  8  7  2  0
  9  4  2  0
 11 10  1  0
 12  9  1  0
 13 12  1  0
 14 15  1  0
 16 15  1  0
 16 17  1  0
 17 22  1  0
 17 18  2  0
 18 19  1  0
 20 19  2  0
 21 20  1  0
 22 21  2  0
 23 22  1  0
 24 25  1  0
 24  1  1  0
 26 31  2  0
 26 25  1  0
 27 26  1  0
 28 29  1  0
 28 27  2  0
 29 30  2  0
 30 31  1  0
 32 30  1  0
 33 32  1  0
 34 33  1  0
 34 29  1  0
M  END
$$$$
