lig_478
     RDKit          3D

 23 26  0  0  0  0  0  0  0  0999 V2000
   -5.7250    9.4560   14.8120 O   0  0  0  0  0  0  0  0  0  0  0  0
   -4.8190    9.6210   15.6230 C   0  0  0  0  0  0  0  0  0  0  0  0
   -4.0700    8.6020   16.2020 N   0  0  0  0  0  0  0  0  0  0  0  0
   -4.2100    7.2420   16.1290 C   0  0  0  0  0  0  0  0  0  0  0  0
   -3.3980    6.4920   16.8140 N   0  0  0  0  0  0  0  0  0  0  0  0
   -3.7780    5.2090   16.5440 N   0  0  0  0  0  0  0  0  0  0  0  0
   -3.3540    3.9670   16.9280 C   0  0  0  0  0  0  0  0  0  0  0  0
   -4.1190    3.0570   16.3310 N   0  0  0  0  0  0  0  0  0  0  0  0
   -5.0590    3.7160   15.5430 N   0  0  0  0  0  0  0  0  0  0  0  0
   -4.8150    4.9850   15.7020 C   0  0  0  0  0  0  0  0  0  0  0  0
   -5.4470    6.4660   15.1400 S   0  0  0  0  0  0  0  0  0  0  0  0
   -2.2760    3.6870   17.8180 C   0  0  0  0  0  0  0  0  0  0  0  0
   -2.0140    2.5080   18.4970 C   0  0  0  0  0  0  0  0  0  0  0  0
   -0.8370    2.7090   19.2570 C   0  0  0  0  0  0  0  0  0  0  0  0
   -0.4420    3.9980   19.0030 C   0  0  0  0  0  0  0  0  0  0  0  0
   -1.2990    4.5960   18.1380 O   0  0  0  0  0  0  0  0  0  0  0  0
   -4.3610   11.0220   16.0040 C   0  0  0  0  0  0  0  0  0  0  0  0
   -2.8900   11.2780   15.7710 C   0  0  0  0  0  0  0  0  0  0  0  0
   -2.1610   12.0970   16.6460 C   0  0  0  0  0  0  0  0  0  0  0  0
   -0.8090   12.3510   16.4110 C   0  0  0  0  0  0  0  0  0  0  0  0
   -0.1740   11.7870   15.3060 C   0  0  0  0  0  0  0  0  0  0  0  0
   -0.8880   10.9660   14.4360 C   0  0  0  0  0  0  0  0  0  0  0  0
   -2.2390   10.7090   14.6670 C   0  0  0  0  0  0  0  0  0  0  0  0
  1  2  2  0
  2 17  1  0
  2  3  1  0
  4  3  1  0
  4  5  2  0
  6  5  1  0
  6  7  1  0
  7 12  1  0
  8  7  2  0
  9 10  2  0
  9  8  1  0
 10  6  1  0
 11 10  1  0
 11  4  1  0
 12 16  1  0
 12 13  2  0
 13 14  1  0
 15 14  2  0
 16 15  1  0
 18 17  1  0
 18 19  2  0
 20 19  1  0
 21 20  2  0
 22 23  2  0
 22 21  1  0
 23 18  1  0
M  END
$$$$
