lig_068
     RDKit          3D

 20 22  0  0  1  0  0  0  0  0999 V2000
   19.7320   17.6330   10.3050 C   0  0  1  0  0  0  0  0  0  0  0  0
   20.6580   17.8690    9.1080 C   0  0  0  0  0  0  0  0  0  0  0  0
   21.4140   16.8140    8.5590 C   0  0  0  0  0  0  0  0  0  0  0  0
   22.2390   16.9890    7.4320 C   0  0  0  0  0  0  0  0  0  0  0  0
   22.3090   18.2650    6.8590 C   0  0  0  0  0  0  0  0  0  0  0  0
   21.5990   19.3320    7.4100 C   0  0  0  0  0  0  0  0  0  0  0  0
   20.8070   19.1370    8.5410 C   0  0  0  0  0  0  0  0  0  0  0  0
   20.2000   20.2560    9.0390 O   0  0  0  0  0  0  0  0  0  0  0  0
   19.9790   20.1490   10.4470 C   0  0  0  0  0  0  0  0  0  0  0  0
   19.0420   18.9640   10.7820 C   0  0  2  0  0  0  0  0  0  0  0  0
   18.8120   18.9800   12.3040 C   0  0  0  0  0  0  0  0  0  0  0  0
   23.0030   15.8620    6.8710 C   0  0  0  0  0  0  0  0  0  0  0  0
   23.0230   15.6190    5.4870 C   0  0  0  0  0  0  0  0  0  0  0  0
   23.7490   14.5500    4.9530 C   0  0  0  0  0  0  0  0  0  0  0  0
   24.4650   13.7050    5.7950 C   0  0  0  0  0  0  0  0  0  0  0  0
   24.4590   13.9260    7.1700 C   0  0  0  0  0  0  0  0  0  0  0  0
   23.7340   14.9970    7.7030 C   0  0  0  0  0  0  0  0  0  0  0  0
   17.7360   19.1800   10.1150 N   0  0  0  0  0  0  0  0  0  0  0  0
   19.0010   15.1770   10.8020 C   0  0  0  0  0  0  0  0  0  0  0  0
   18.7600   16.4520   10.0090 C   0  0  0  0  0  0  0  0  0  0  0  0
  1 20  1  6
  1 10  1  0
  2  1  1  0
  3  2  1  0
  4  3  2  0
  5  6  2  0
  5  4  1  0
  6  7  1  0
  7  8  1  0
  7  2  2  0
  8  9  1  0
  9 10  1  0
 10 11  1  1
 12  4  1  0
 12 17  1  0
 13 12  2  0
 14 13  1  0
 14 15  2  0
 15 16  1  0
 16 17  2  0
 18 10  1  0
 20 19  1  0
M  END
$$$$
