lig_217
     RDKit          3D

 33 37  0  0  1  0  0  0  0  0999 V2000
    0.5590  -15.4710   11.5340 C   0  0  1  0  0  0  0  0  0  0  0  0
    2.0560  -15.4810   11.8820 C   0  0  0  0  0  0  0  0  0  0  0  0
    2.4370  -16.7190   12.6840 C   0  0  0  0  0  0  0  0  0  0  0  0
    1.7150  -16.7520   14.0480 C   0  0  1  0  0  0  0  0  0  0  0  0
    0.2970  -16.1510   13.9660 C   0  0  0  0  0  0  0  0  0  0  0  0
   -0.2930  -16.2390   12.5600 C   0  0  0  0  0  0  0  0  0  0  0  0
    0.4790  -13.9790    9.1300 O   0  0  0  0  0  0  0  0  0  0  0  0
    0.0600  -13.4690   10.1630 C   0  0  0  0  0  0  0  0  0  0  0  0
    0.0970  -14.0930   11.3930 N   0  0  0  0  0  0  0  0  0  0  0  0
   -0.5490  -12.0840   10.2050 C   0  0  2  0  0  0  0  0  0  0  0  0
   -1.0880  -11.7200   11.5960 C   0  0  0  0  0  0  0  0  0  0  0  0
   -1.8760  -10.4290   11.4220 C   0  0  0  0  0  0  0  0  0  0  0  0
   -2.6670  -10.5740    9.8290 S   0  0  0  0  0  0  0  0  0  0  0  0
   -4.0490  -10.9610   10.0180 O   0  0  0  0  0  0  0  0  0  0  0  0
   -2.2840   -9.4350    9.0210 O   0  0  0  0  0  0  0  0  0  0  0  0
   -1.7490  -11.9920    9.2650 C   0  0  0  0  0  0  0  0  0  0  0  0
    1.7410  -18.1950   14.6010 C   0  0  0  0  0  0  0  0  0  0  0  0
    1.3580  -19.3010   13.6000 C   0  0  0  0  0  0  0  0  0  0  0  0
    1.4140  -20.6610   14.1530 N   0  0  0  0  0  0  0  0  0  0  0  0
    0.7160  -20.7670   15.4420 C   0  0  0  0  0  0  0  0  0  0  0  0
   -0.8060  -20.6730   15.3240 C   0  0  0  0  0  0  0  0  0  0  0  0
   -1.3880  -21.7230   14.3580 C   0  0  0  0  0  0  0  0  0  0  0  0
   -0.5840  -21.7360   13.0430 C   0  0  0  0  0  0  0  0  0  0  0  0
    0.9370  -21.7030   13.2370 C   0  0  0  0  0  0  0  0  0  0  0  0
   -1.6150  -23.0640   15.0420 C   0  0  0  0  0  0  0  0  0  0  0  0
   -0.7360  -24.1580   14.9650 C   0  0  0  0  0  0  0  0  0  0  0  0
   -1.0110  -25.3730   15.6240 C   0  0  0  0  0  0  0  0  0  0  0  0
   -2.1750  -25.5330   16.3720 C   0  0  0  0  0  0  0  0  0  0  0  0
   -3.0390  -24.4640   16.4330 C   0  0  0  0  0  0  0  0  0  0  0  0
   -2.7710  -23.2740   15.7910 C   0  0  0  0  0  0  0  0  0  0  0  0
   -3.7730  -22.3650   15.9800 O   0  0  0  0  0  0  0  0  0  0  0  0
   -4.6810  -23.1140   16.8110 C   0  0  0  0  0  0  0  0  0  0  0  0
   -4.2220  -24.4470   17.1040 O   0  0  0  0  0  0  0  0  0  0  0  0
  1  9  1  1
  1  2  1  0
  1  6  1  0
  2  3  1  0
  3  4  1  0
  4 17  1  6
  5  4  1  0
  6  5  1  0
  7  8  2  0
  8  9  1  0
 10  8  1  1
 10 11  1  0
 12 11  1  0
 13 14  2  0
 13 12  1  0
 15 13  2  0
 16 13  1  0
 16 10  1  0
 18 19  1  0
 18 17  1  0
 19 20  1  0
 21 20  1  0
 22 25  1  0
 22 21  1  0
 23 24  1  0
 23 22  1  0
 24 19  1  0
 25 30  1  0
 26 25  2  0
 26 27  1  0
 27 28  2  0
 28 29  1  0
 29 33  1  0
 30 31  1  0
 30 29  2  0
 31 32  1  0
 32 33  1  0
M  END
$$$$
