lig_433
     RDKit          3D

 19 22  0  0  0  0  0  0  0  0999 V2000
   -1.7590    8.9120   16.1390 C   0  0  0  0  0  0  0  0  0  0  0  0
   -0.9200    7.8910   16.7870 C   0  0  0  0  0  0  0  0  0  0  0  0
   -1.4130    6.7130   17.2160 C   0  0  0  0  0  0  0  0  0  0  0  0
   -2.7930    6.4250   17.0470 C   0  0  0  0  0  0  0  0  0  0  0  0
   -3.5100    5.3710   17.3700 N   0  0  0  0  0  0  0  0  0  0  0  0
   -4.7880    5.6620   16.9580 C   0  0  0  0  0  0  0  0  0  0  0  0
   -4.8490    6.9100   16.3770 C   0  0  0  0  0  0  0  0  0  0  0  0
   -3.5690    7.3990   16.4330 N   0  0  0  0  0  0  0  0  0  0  0  0
   -3.0690    8.6190   15.9860 C   0  0  0  0  0  0  0  0  0  0  0  0
   -0.8800   12.0810   14.4720 C   0  0  0  0  0  0  0  0  0  0  0  0
   -0.1650   12.1030   15.6410 C   0  0  0  0  0  0  0  0  0  0  0  0
   -0.4010   10.9800   16.3580 O   0  0  0  0  0  0  0  0  0  0  0  0
   -1.2920   10.1830   15.6620 C   0  0  0  0  0  0  0  0  0  0  0  0
   -1.5970   10.8610   14.4840 C   0  0  0  0  0  0  0  0  0  0  0  0
   -5.9880    4.6880   17.1400 C   0  0  0  0  0  0  0  0  0  0  0  0
   -7.0920    4.8810   17.9490 C   0  0  0  0  0  0  0  0  0  0  0  0
   -7.9170    3.7400   17.7960 C   0  0  0  0  0  0  0  0  0  0  0  0
   -7.2690    2.9200   16.9050 C   0  0  0  0  0  0  0  0  0  0  0  0
   -6.1030    3.4830   16.5030 O   0  0  0  0  0  0  0  0  0  0  0  0
  1  2  1  0
  2  3  2  0
  4  3  1  0
  4  5  2  0
  6 15  1  0
  6  5  1  0
  7  8  1  0
  7  6  2  0
  8  4  1  0
  9  1  2  0
  9  8  1  0
 10 14  1  0
 10 11  2  0
 11 12  1  0
 13  1  1  0
 13 12  1  0
 14 13  2  0
 15 16  2  0
 17 16  1  0
 18 17  2  0
 19 18  1  0
 19 15  1  0
M  END
$$$$
