lig_110
     RDKit          3D

 26 29  0  0  0  0  0  0  0  0999 V2000
   -1.4460    9.7280   15.7110 C   0  0  0  0  0  0  0  0  0  0  0  0
   -0.7780    9.4800   14.7150 O   0  0  0  0  0  0  0  0  0  0  0  0
   -1.5450    8.8560   16.7710 N   0  0  0  0  0  0  0  0  0  0  0  0
   -5.6790   11.7020   16.2300 N   0  0  0  0  0  0  0  0  0  0  0  0
   -4.3170   11.8780   16.1410 C   0  0  0  0  0  0  0  0  0  0  0  0
   -3.5640   10.8030   15.9770 N   0  0  0  0  0  0  0  0  0  0  0  0
   -2.2220   11.0130   15.9000 C   0  0  0  0  0  0  0  0  0  0  0  0
   -1.6090   12.2730   15.9950 C   0  0  0  0  0  0  0  0  0  0  0  0
   -0.2170   12.5770   15.9170 C   0  0  0  0  0  0  0  0  0  0  0  0
    0.2510   13.8850   16.0320 C   0  0  0  0  0  0  0  0  0  0  0  0
   -0.6570   14.9100   16.2270 C   0  0  0  0  0  0  0  0  0  0  0  0
   -2.0180   14.6140   16.3010 C   0  0  0  0  0  0  0  0  0  0  0  0
   -2.8640   15.6400   16.4920 F   0  0  0  0  0  0  0  0  0  0  0  0
   -2.5210   13.3170   16.1870 C   0  0  0  0  0  0  0  0  0  0  0  0
   -3.8480   13.1140   16.2650 N   0  0  0  0  0  0  0  0  0  0  0  0
   -0.8270    7.6040   16.8630 C   0  0  0  0  0  0  0  0  0  0  0  0
   -1.7620    6.4530   17.1680 C   0  0  0  0  0  0  0  0  0  0  0  0
   -3.0470    6.6400   16.7500 N   0  0  0  0  0  0  0  0  0  0  0  0
   -3.9360    5.6630   17.0060 C   0  0  0  0  0  0  0  0  0  0  0  0
   -3.6220    4.4960   17.6750 C   0  0  0  0  0  0  0  0  0  0  0  0
   -2.3130    4.3060   18.1220 C   0  0  0  0  0  0  0  0  0  0  0  0
   -1.9620    3.1350   18.8140 C   0  0  0  0  0  0  0  0  0  0  0  0
   -0.6610    2.9370   19.2740 C   0  0  0  0  0  0  0  0  0  0  0  0
    0.3070    3.9060   19.0470 C   0  0  0  0  0  0  0  0  0  0  0  0
   -0.0270    5.0750   18.3580 C   0  0  0  0  0  0  0  0  0  0  0  0
   -1.3390    5.3020   17.8780 C   0  0  0  0  0  0  0  0  0  0  0  0
  1  7  1  0
  1  3  1  0
  2  1  2  0
  3 16  1  0
  5  4  1  0
  5 15  2  0
  6  5  1  0
  7  6  2  0
  7  8  1  0
  8 14  1  0
  9  8  2  0
  9 10  1  0
 10 11  2  0
 11 12  1  0
 12 13  1  0
 14 15  1  0
 14 12  2  0
 16 17  1  0
 17 26  1  0
 18 19  1  0
 18 17  2  0
 19 20  2  0
 20 21  1  0
 21 22  2  0
 22 23  1  0
 24 23  2  0
 25 24  1  0
 26 21  1  0
 26 25  2  0
M  END
$$$$
