lig_261
     RDKit          3D

 30 34  0  0  0  0  0  0  0  0999 V2000
    1.2240    8.2740   17.8570 N   0  0  0  0  0  0  0  0  0  0  0  0
   -0.0420    7.8630   17.5160 C   0  0  0  0  0  0  0  0  0  0  0  0
   -0.9060    8.7070   16.9860 N   0  0  0  0  0  0  0  0  0  0  0  0
   -2.1350    8.1850   16.6780 C   0  0  0  0  0  0  0  0  0  0  0  0
   -2.6110    6.9040   16.8590 C   0  0  0  0  0  0  0  0  0  0  0  0
   -3.9190    6.8750   16.4030 C   0  0  0  0  0  0  0  0  0  0  0  0
   -4.2920    8.0770   15.9390 N   0  0  0  0  0  0  0  0  0  0  0  0
   -3.1860    8.8530   16.1040 N   0  0  0  0  0  0  0  0  0  0  0  0
   -1.6080    5.9610   17.4850 C   0  0  0  0  0  0  0  0  0  0  0  0
   -1.6470    4.7040   17.8380 N   0  0  0  0  0  0  0  0  0  0  0  0
   -0.3820    4.5170   18.3690 C   0  0  0  0  0  0  0  0  0  0  0  0
    0.4190    5.6000   18.3610 N   0  0  0  0  0  0  0  0  0  0  0  0
   -0.3880    6.5040   17.7670 N   0  0  0  0  0  0  0  0  0  0  0  0
    0.0770    3.1390   18.9500 C   0  0  0  0  0  0  0  0  0  0  0  0
   -0.7620    2.0930   19.2860 C   0  0  0  0  0  0  0  0  0  0  0  0
    0.0620    1.0470   19.7670 C   0  0  0  0  0  0  0  0  0  0  0  0
    1.3520    1.5170   19.6970 C   0  0  0  0  0  0  0  0  0  0  0  0
    1.3730    2.7820   19.2040 O   0  0  0  0  0  0  0  0  0  0  0  0
   -3.2130   10.2440   15.6970 C   0  0  0  0  0  0  0  0  0  0  0  0
   -2.2460   10.5050   14.5470 C   0  0  0  0  0  0  0  0  0  0  0  0
   -1.4310   11.7530   14.7800 C   0  0  0  0  0  0  0  0  0  0  0  0
   -1.9600   13.0140   14.4650 C   0  0  0  0  0  0  0  0  0  0  0  0
   -1.2180   14.1720   14.7000 C   0  0  0  0  0  0  0  0  0  0  0  0
    0.0570   14.0660   15.2610 C   0  0  0  0  0  0  0  0  0  0  0  0
    0.6000   12.8200   15.5810 C   0  0  0  0  0  0  0  0  0  0  0  0
   -0.1490   11.6660   15.3440 C   0  0  0  0  0  0  0  0  0  0  0  0
    1.0190   15.5270   15.5340 S   0  0  0  0  0  0  0  0  0  0  0  0
    0.1040   16.6350   15.6790 O   0  0  0  0  0  0  0  0  0  0  0  0
    2.1020   15.5430   14.5740 O   0  0  0  0  0  0  0  0  0  0  0  0
    1.7380   15.2800   16.9590 O   0  0  0  0  0  0  0  0  0  0  0  0
  2 13  1  0
  2  1  1  0
  3  2  2  0
  4  5  2  0
  4  3  1  0
  5  9  1  0
  6  5  1  0
  7  8  1  0
  7  6  2  0
  8  4  1  0
  9 13  1  0
  9 10  2  0
 10 11  1  0
 11 14  1  0
 12 11  2  0
 13 12  1  0
 14 18  1  0
 14 15  2  0
 15 16  1  0
 17 16  2  0
 18 17  1  0
 19  8  1  0
 20 21  1  0
 20 19  1  0
 21 26  2  0
 22 23  2  0
 22 21  1  0
 23 24  1  0
 24 27  1  0
 24 25  2  0
 26 25  1  0
 27 28  1  0
 27 30  1  0
 29 27  1  0
M  END
$$$$
