lig_190
     RDKit          3D

 26 29  0  0  1  0  0  0  0  0999 V2000
    0.9780  -19.6450   14.7720 C   0  0  0  0  0  0  0  0  0  0  0  0
   -1.0340  -19.1630   16.0480 C   0  0  0  0  0  0  0  0  0  0  0  0
   -0.1900  -20.2100   15.4770 N   0  0  0  0  0  0  0  0  0  0  0  0
   -0.9600  -21.1610   14.6680 C   0  0  0  0  0  0  0  0  0  0  0  0
   -0.9260  -22.6040   15.1960 C   0  0  2  0  0  0  0  0  0  0  0  0
   -0.6390  -22.7550   16.7170 C   0  0  0  0  0  0  0  0  0  0  0  0
   -0.9990  -24.2260   16.9970 C   0  0  0  0  0  0  0  0  0  0  0  0
   -1.4520  -24.7400   15.6130 C   0  0  2  0  0  0  0  0  0  0  0  0
   -0.1760  -24.8800   14.7610 C   0  0  0  0  0  0  0  0  0  0  0  0
    0.2010  -23.4180   14.4790 C   0  0  0  0  0  0  0  0  0  0  0  0
   -2.1790  -23.5150   14.9910 C   0  0  0  0  0  0  0  0  0  0  0  0
   -2.6100  -23.7250   13.5260 C   0  0  0  0  0  0  0  0  0  0  0  0
   -3.4530  -23.1240   15.7680 C   0  0  0  0  0  0  0  0  0  0  0  0
    0.8620  -19.4620   13.2420 C   0  0  0  0  0  0  0  0  0  0  0  0
    1.2370  -18.1270   12.8030 N   0  0  0  0  0  0  0  0  0  0  0  0
    2.2430  -17.3440   13.4720 C   0  0  0  0  0  0  0  0  0  0  0  0
    2.2310  -16.0280   12.7100 C   0  0  0  0  0  0  0  0  0  0  0  0
    0.9390  -16.0040   12.0550 N   0  0  0  0  0  0  0  0  0  0  0  0
    0.3630  -17.2950   12.0820 C   0  0  0  0  0  0  0  0  0  0  0  0
   -0.6900  -17.6810   11.6000 O   0  0  0  0  0  0  0  0  0  0  0  0
    0.4270  -14.8540   11.3980 C   0  0  0  0  0  0  0  0  0  0  0  0
    0.8880  -14.4950   10.1200 C   0  0  0  0  0  0  0  0  0  0  0  0
    0.3970  -13.3620    9.4600 C   0  0  0  0  0  0  0  0  0  0  0  0
   -0.5670  -12.5650   10.0670 C   0  0  0  0  0  0  0  0  0  0  0  0
   -1.0360  -12.9010   11.3310 C   0  0  0  0  0  0  0  0  0  0  0  0
   -0.5430  -14.0340   11.9890 C   0  0  0  0  0  0  0  0  0  0  0  0
  1  3  1  0
  3  2  1  0
  4  3  1  0
  5  4  1  6
  5  6  1  0
  6  7  1  0
  8  9  1  6
  8  7  1  0
 10  9  1  0
 10  5  1  0
 11  5  1  0
 11  8  1  0
 11 13  1  0
 12 11  1  0
 14  1  1  0
 15 14  1  0
 15 16  1  0
 17 16  1  0
 18 19  1  0
 18 17  1  0
 19 15  1  0
 20 19  2  0
 21 26  1  0
 21 18  1  0
 22 21  2  0
 23 24  2  0
 23 22  1  0
 24 25  1  0
 25 26  2  0
M  END
$$$$
