lig_095
     RDKit          3D

 34 39  0  0  0  0  0  0  0  0999 V2000
   -5.2050    7.4910   15.8980 N   0  0  0  0  0  0  0  0  0  0  0  0
   -3.8930    7.4530   16.2930 C   0  0  0  0  0  0  0  0  0  0  0  0
   -3.3940    6.4020   16.8910 N   0  0  0  0  0  0  0  0  0  0  0  0
   -2.0280    6.4090   17.2890 C   0  0  0  0  0  0  0  0  0  0  0  0
   -1.4740    5.3180   17.9380 C   0  0  0  0  0  0  0  0  0  0  0  0
   -0.1530    5.3050   18.3350 C   0  0  0  0  0  0  0  0  0  0  0  0
    0.6960    6.3710   18.1120 C   0  0  0  0  0  0  0  0  0  0  0  0
    0.1780    7.4930   17.4590 C   0  0  0  0  0  0  0  0  0  0  0  0
   -1.1690    7.5110   17.0540 C   0  0  0  0  0  0  0  0  0  0  0  0
   -1.7570    8.6420   16.3700 C   0  0  0  0  0  0  0  0  0  0  0  0
   -1.2630    9.7940   15.9750 N   0  0  0  0  0  0  0  0  0  0  0  0
   -2.3530   10.4040   15.3750 C   0  0  0  0  0  0  0  0  0  0  0  0
   -3.4780    9.6650   15.3480 N   0  0  0  0  0  0  0  0  0  0  0  0
   -3.0750    8.5670   16.0260 N   0  0  0  0  0  0  0  0  0  0  0  0
    0.1940    4.1450   18.9540 O   0  0  0  0  0  0  0  0  0  0  0  0
   -1.0560    3.4440   18.8950 C   0  0  0  0  0  0  0  0  0  0  0  0
   -0.8620    2.2790   18.2300 F   0  0  0  0  0  0  0  0  0  0  0  0
   -1.4340    3.1360   20.1600 F   0  0  0  0  0  0  0  0  0  0  0  0
   -2.1180    4.1610   18.2610 O   0  0  0  0  0  0  0  0  0  0  0  0
   -2.2580   11.7820   14.7790 C   0  0  0  0  0  0  0  0  0  0  0  0
   -3.2500   12.7100   15.3690 N   0  0  0  0  0  0  0  0  0  0  0  0
   -3.4440   13.8960   14.5240 C   0  0  0  0  0  0  0  0  0  0  0  0
   -2.2820   14.8840   14.5750 C   0  0  0  0  0  0  0  0  0  0  0  0
   -1.9800   15.3060   16.0160 C   0  0  0  0  0  0  0  0  0  0  0  0
   -1.7620   14.0630   16.8800 C   0  0  0  0  0  0  0  0  0  0  0  0
   -2.9390   13.0980   16.7530 C   0  0  0  0  0  0  0  0  0  0  0  0
   -0.7930   16.1050   15.9800 O   0  0  0  0  0  0  0  0  0  0  0  0
    0.0970   15.9400   14.9570 C   0  0  0  0  0  0  0  0  0  0  0  0
    1.0450   14.9220   14.8330 C   0  0  0  0  0  0  0  0  0  0  0  0
    1.8900   14.8820   13.7210 C   0  0  0  0  0  0  0  0  0  0  0  0
    1.7850   15.8580   12.7370 C   0  0  0  0  0  0  0  0  0  0  0  0
    2.5970   15.8140   11.6740 F   0  0  0  0  0  0  0  0  0  0  0  0
    0.8460   16.8750   12.8420 C   0  0  0  0  0  0  0  0  0  0  0  0
    0.0030   16.9130   13.9530 C   0  0  0  0  0  0  0  0  0  0  0  0
  1  2  1  0
  2  3  2  0
  3  4  1  0
  4  5  1  0
  5 19  1  0
  5  6  2  0
  6 15  1  0
  7  6  1  0
  8  7  2  0
  9  4  2  0
  9  8  1  0
 10  9  1  0
 11 10  2  0
 12 11  1  0
 13 12  2  0
 13 14  1  0
 14  2  1  0
 14 10  1  0
 16 15  1  0
 16 18  1  0
 17 16  1  0
 19 16  1  0
 20 21  1  0
 20 12  1  0
 21 26  1  0
 22 23  1  0
 22 21  1  0
 23 24  1  0
 24 25  1  0
 26 25  1  0
 27 24  1  0
 28 27  1  0
 29 28  1  0
 30 29  2  0
 31 33  2  0
 31 30  1  0
 32 31  1  0
 33 34  1  0
 34 28  2  0
M  END
$$$$
