lig_410
     RDKit          3D

 37 41  0  0  0  0  0  0  0  0999 V2000
   -1.3080   12.5120   15.6750 C   0  0  0  0  0  0  0  0  0  0  0  0
   -0.9000   11.5190   14.7730 C   0  0  0  0  0  0  0  0  0  0  0  0
   -1.7230   10.4270   14.4660 C   0  0  0  0  0  0  0  0  0  0  0  0
   -2.9750   10.3080   15.0630 C   0  0  0  0  0  0  0  0  0  0  0  0
   -3.3880   11.2890   15.9660 C   0  0  0  0  0  0  0  0  0  0  0  0
   -2.5660   12.3810   16.2730 C   0  0  0  0  0  0  0  0  0  0  0  0
    2.1610   17.0420   17.3230 N   0  0  0  0  0  0  0  0  0  0  0  0
    1.1650   16.2110   17.8730 C   0  0  0  0  0  0  0  0  0  0  0  0
    0.7520   16.3070   19.0250 O   0  0  0  0  0  0  0  0  0  0  0  0
    0.6620   15.2340   16.9350 C   0  0  0  0  0  0  0  0  0  0  0  0
   -0.2910   14.2630   17.1190 N   0  0  0  0  0  0  0  0  0  0  0  0
   -0.4060   13.6360   15.9570 C   0  0  0  0  0  0  0  0  0  0  0  0
    0.4660   14.1890   15.0380 N   0  0  0  0  0  0  0  0  0  0  0  0
    1.1400   15.1990   15.6580 C   0  0  0  0  0  0  0  0  0  0  0  0
    2.0990   16.0370   15.1350 N   0  0  0  0  0  0  0  0  0  0  0  0
    2.6120   17.0350   15.9860 C   0  0  0  0  0  0  0  0  0  0  0  0
    3.4190   17.8720   15.5710 O   0  0  0  0  0  0  0  0  0  0  0  0
    2.7020   18.0740   18.2010 C   0  0  0  0  0  0  0  0  0  0  0  0
    5.1280   18.4790   18.7510 C   0  0  0  0  0  0  0  0  0  0  0  0
    3.9270   17.5760   18.9710 C   0  0  0  0  0  0  0  0  0  0  0  0
    2.5420   16.0040   13.7430 C   0  0  0  0  0  0  0  0  0  0  0  0
    1.6180   16.8160   12.8360 C   0  0  0  0  0  0  0  0  0  0  0  0
    2.1120   16.8200   11.3990 C   0  0  0  0  0  0  0  0  0  0  0  0
   -3.8820    9.3060   14.8650 O   0  0  0  0  0  0  0  0  0  0  0  0
   -4.5620    8.7570   16.0030 C   0  0  0  0  0  0  0  0  0  0  0  0
   -4.1900    7.3460   16.3050 C   0  0  0  0  0  0  0  0  0  0  0  0
   -4.9090    6.3040   15.8630 N   0  0  0  0  0  0  0  0  0  0  0  0
   -4.2140    5.2020   16.3680 O   0  0  0  0  0  0  0  0  0  0  0  0
   -3.1360    5.6940   17.0520 C   0  0  0  0  0  0  0  0  0  0  0  0
   -3.0710    7.0080   17.0290 N   0  0  0  0  0  0  0  0  0  0  0  0
   -2.2440    4.7260   17.6780 C   0  0  0  0  0  0  0  0  0  0  0  0
   -0.9890    5.0880   18.1890 C   0  0  0  0  0  0  0  0  0  0  0  0
   -0.1570    4.1350   18.7850 C   0  0  0  0  0  0  0  0  0  0  0  0
   -0.5650    2.8020   18.8910 C   0  0  0  0  0  0  0  0  0  0  0  0
    0.3440    1.7750   19.4990 C   0  0  0  0  0  0  0  0  0  0  0  0
   -1.8070    2.4300   18.3690 C   0  0  0  0  0  0  0  0  0  0  0  0
   -2.6390    3.3830   17.7740 C   0  0  0  0  0  0  0  0  0  0  0  0
  1 12  1  0
  1  6  2  0
  2  1  1  0
  3  2  2  0
  3  4  1  0
  4  5  2  0
  5  6  1  0
  7  8  1  0
  7 18  1  0
  8  9  2  0
 10 11  1  0
 10  8  1  0
 12 11  2  0
 13 14  1  0
 13 12  1  0
 14 10  2  0
 15 14  1  0
 15 16  1  0
 16  7  1  0
 17 16  2  0
 18 20  1  0
 19 20  1  0
 21 15  1  0
 22 21  1  0
 23 22  1  0
 24  4  1  0
 24 25  1  0
 25 26  1  0
 26 30  1  0
 27 26  2  0
 27 28  1  0
 28 29  1  0
 29 31  1  0
 30 29  2  0
 31 37  2  0
 31 32  1  0
 32 33  2  0
 33 34  1  0
 34 35  1  0
 36 34  2  0
 37 36  1  0
M  END
$$$$
