lig_408
     RDKit          3D

 32 36  0  0  0  0  0  0  0  0999 V2000
    0.0870  -17.9620   11.5980 C   0  0  0  0  0  0  0  0  0  0  0  0
    0.3350  -16.6760   11.7630 N   0  0  0  0  0  0  0  0  0  0  0  0
    0.2400  -16.0040   10.5570 C   0  0  0  0  0  0  0  0  0  0  0  0
    0.4630  -14.6260   10.3570 C   0  0  0  0  0  0  0  0  0  0  0  0
    0.3280  -14.0610    9.0760 C   0  0  0  0  0  0  0  0  0  0  0  0
   -0.0250  -14.8830    8.0000 C   0  0  0  0  0  0  0  0  0  0  0  0
   -0.2540  -16.2520    8.1750 C   0  0  0  0  0  0  0  0  0  0  0  0
   -0.1150  -16.7910    9.4640 C   0  0  0  0  0  0  0  0  0  0  0  0
   -0.3300  -18.4130    9.9910 S   0  0  0  0  0  0  0  0  0  0  0  0
   -0.0480  -20.8220   14.8260 C   0  0  0  0  0  0  0  0  0  0  0  0
   -1.1150  -20.6740   13.9310 C   0  0  0  0  0  0  0  0  0  0  0  0
   -1.0520  -19.7370   12.8930 C   0  0  0  0  0  0  0  0  0  0  0  0
    0.0850  -18.9320   12.7040 C   0  0  0  0  0  0  0  0  0  0  0  0
    1.1440  -19.0900   13.6030 C   0  0  0  0  0  0  0  0  0  0  0  0
    2.2480  -18.3330   13.5170 F   0  0  0  0  0  0  0  0  0  0  0  0
    1.0880  -20.0230   14.6420 C   0  0  0  0  0  0  0  0  0  0  0  0
   -0.1060  -21.8420   15.9450 C   0  0  0  0  0  0  0  0  0  0  0  0
   -1.4990  -24.9310   16.2470 C   0  0  0  0  0  0  0  0  0  0  0  0
   -1.2400  -23.6980   17.1490 C   0  0  0  0  0  0  0  0  0  0  0  0
   -1.1230  -22.8940   15.9220 N   0  0  0  0  0  0  0  0  0  0  0  0
   -0.7750  -24.1020   15.1560 C   0  0  0  0  0  0  0  0  0  0  0  0
   -3.7230  -25.9610   16.6980 O   0  0  0  0  0  0  0  0  0  0  0  0
   -2.9560  -25.3460   15.9670 C   0  0  0  0  0  0  0  0  0  0  0  0
   -3.4210  -24.9270   14.7630 O   0  0  0  0  0  0  0  0  0  0  0  0
    0.5850  -12.5860    8.8690 C   0  0  0  0  0  0  0  0  0  0  0  0
   -0.4580  -11.7010    9.5020 C   0  0  0  0  0  0  0  0  0  0  0  0
   -1.8250  -11.9190    9.2730 C   0  0  0  0  0  0  0  0  0  0  0  0
   -2.7810  -11.0810    9.8520 C   0  0  0  0  0  0  0  0  0  0  0  0
   -2.3860  -10.0180   10.6630 C   0  0  0  0  0  0  0  0  0  0  0  0
   -1.0310   -9.7900   10.8930 C   0  0  0  0  0  0  0  0  0  0  0  0
   -0.0820  -10.6260   10.3130 C   0  0  0  0  0  0  0  0  0  0  0  0
    1.2170  -10.3870   10.5460 F   0  0  0  0  0  0  0  0  0  0  0  0
  1  2  2  0
  1 13  1  0
  3  2  1  0
  4  3  1  0
  5  4  2  0
  6  7  2  0
  6  5  1  0
  7  8  1  0
  8  9  1  0
  8  3  2  0
  9  1  1  0
 10 17  1  0
 11 10  1  0
 12 11  2  0
 13 12  1  0
 13 14  2  0
 14 16  1  0
 15 14  1  0
 16 10  2  0
 18 19  1  0
 20 17  1  0
 20 19  1  0
 21 20  1  0
 21 18  1  0
 23 18  1  0
 23 22  2  0
 24 23  1  0
 25  5  1  0
 25 26  1  0
 26 31  1  0
 27 26  2  0
 27 28  1  0
 28 29  2  0
 29 30  1  0
 31 32  1  0
 31 30  2  0
M  END
$$$$
