lig_274
     RDKit          3D

 25 29  0  0  0  0  0  0  0  0999 V2000
    1.0540    6.4590   18.3520 C   0  0  0  0  0  0  0  0  0  0  0  0
    0.2740    5.2500   18.4560 N   0  0  0  0  0  0  0  0  0  0  0  0
    0.8240    4.1230   18.9810 N   0  0  0  0  0  0  0  0  0  0  0  0
   -0.1720    3.2200   18.9220 C   0  0  0  0  0  0  0  0  0  0  0  0
   -1.3310    3.7690   18.3660 C   0  0  0  0  0  0  0  0  0  0  0  0
   -2.5880    3.1840   18.1210 N   0  0  0  0  0  0  0  0  0  0  0  0
   -3.4970    3.9830   17.5750 C   0  0  0  0  0  0  0  0  0  0  0  0
   -4.7330    3.4130   17.3350 N   0  0  0  0  0  0  0  0  0  0  0  0
   -3.1920    5.3470   17.2640 N   0  0  0  0  0  0  0  0  0  0  0  0
   -4.0130    6.2570   16.6990 N   0  0  0  0  0  0  0  0  0  0  0  0
   -3.2150    7.3380   16.6350 C   0  0  0  0  0  0  0  0  0  0  0  0
   -1.9330    7.1620   17.1240 N   0  0  0  0  0  0  0  0  0  0  0  0
   -1.9680    5.9120   17.5010 C   0  0  0  0  0  0  0  0  0  0  0  0
   -1.0150    5.0670   18.0790 C   0  0  0  0  0  0  0  0  0  0  0  0
   -5.8020    3.8950   16.4710 C   0  0  0  0  0  0  0  0  0  0  0  0
   -6.4340    5.1440   17.1040 C   0  0  0  0  0  0  0  0  0  0  0  0
   -7.1970    4.8600   18.4010 C   0  0  0  0  0  0  0  0  0  0  0  0
   -7.8360    3.4730   18.4490 C   0  0  0  0  0  0  0  0  0  0  0  0
   -8.1260    2.9380   17.0560 C   0  0  0  0  0  0  0  0  0  0  0  0
   -6.8510    2.7960   16.2210 C   0  0  0  0  0  0  0  0  0  0  0  0
   -3.6970    8.7020   16.0440 C   0  0  0  0  0  0  0  0  0  0  0  0
   -4.9940    9.0020   15.6760 C   0  0  0  0  0  0  0  0  0  0  0  0
   -4.9850   10.3340   15.1940 C   0  0  0  0  0  0  0  0  0  0  0  0
   -3.6830   10.7660   15.2970 C   0  0  0  0  0  0  0  0  0  0  0  0
   -2.8950    9.7870   15.8100 O   0  0  0  0  0  0  0  0  0  0  0  0
  1  2  1  0
  2  3  1  0
  4  3  2  0
  5  4  1  0
  6  5  1  0
  7  6  2  0
  8  7  1  0
  9 13  1  0
  9  7  1  0
 10  9  1  0
 11 10  2  0
 11 12  1  0
 12 13  2  0
 13 14  1  0
 14  5  2  0
 14  2  1  0
 15 16  1  0
 15  8  1  0
 16 17  1  0
 17 18  1  0
 19 18  1  0
 20 15  1  0
 20 19  1  0
 21 11  1  0
 22 21  2  0
 23 24  2  0
 23 22  1  0
 24 25  1  0
 25 21  1  0
M  END
$$$$
