lig_277
     RDKit          3D

 36 40  0  0  1  0  0  0  0  0999 V2000
    0.7260   14.3640   16.1910 C   0  0  0  0  0  0  0  0  0  0  0  0
    0.9760   13.2460   15.3880 C   0  0  0  0  0  0  0  0  0  0  0  0
    0.0600   12.1900   15.3260 C   0  0  0  0  0  0  0  0  0  0  0  0
   -1.1260   12.2270   16.0710 C   0  0  0  0  0  0  0  0  0  0  0  0
   -1.3770   13.3580   16.8590 C   0  0  0  0  0  0  0  0  0  0  0  0
   -0.4590   14.4150   16.9230 C   0  0  0  0  0  0  0  0  0  0  0  0
   -2.1200   11.1280   16.0230 C   0  0  0  0  0  0  0  0  0  0  0  0
   -1.7290    9.8670   16.3030 C   0  0  0  0  0  0  0  0  0  0  0  0
   -2.6580    8.8740   16.2710 N   0  0  0  0  0  0  0  0  0  0  0  0
   -2.5510    7.5270   16.5210 C   0  0  0  0  0  0  0  0  0  0  0  0
   -1.5270    6.9310   16.8220 O   0  0  0  0  0  0  0  0  0  0  0  0
   -3.8740    7.0290   16.3490 N   0  0  0  0  0  0  0  0  0  0  0  0
   -4.7410    8.0670   16.0060 N   0  0  0  0  0  0  0  0  0  0  0  0
   -3.9500    9.0960   15.9790 C   0  0  0  0  0  0  0  0  0  0  0  0
   -4.3300   10.5240   15.6730 C   0  0  0  0  0  0  0  0  0  0  0  0
   -5.6330   10.8130   15.3650 N   0  0  0  0  0  0  0  0  0  0  0  0
   -3.4320   11.4690   15.7180 N   0  0  0  0  0  0  0  0  0  0  0  0
   -4.3600    5.7120   16.4800 C   0  0  0  0  0  0  0  0  0  0  0  0
   -3.5990    4.6020   16.0920 C   0  0  0  0  0  0  0  0  0  0  0  0
   -4.1000    3.3030   16.2320 C   0  0  0  0  0  0  0  0  0  0  0  0
   -5.3710    3.0950   16.7600 C   0  0  0  0  0  0  0  0  0  0  0  0
   -6.1420    4.1860   17.1500 C   0  0  0  0  0  0  0  0  0  0  0  0
   -5.6390    5.4830   17.0110 C   0  0  0  0  0  0  0  0  0  0  0  0
    1.7670   16.5060   15.3990 C   0  0  0  0  0  0  0  0  0  0  0  0
    0.9770   16.8230   14.5140 O   0  0  0  0  0  0  0  0  0  0  0  0
    1.6980   15.3790   16.1950 N   0  0  0  0  0  0  0  0  0  0  0  0
    3.0040   17.3550   15.6600 C   0  0  0  0  0  0  0  0  0  0  0  0
    2.9150   18.2110   16.9280 C   0  0  0  0  0  0  0  0  0  0  0  0
    2.4600   16.1880   20.6480 C   0  0  0  0  0  0  0  0  0  0  0  0
    1.1910   16.6600   19.9090 C   0  0  0  0  0  0  0  0  0  0  0  0
    1.4740   17.7010   18.8180 C   0  0  0  0  0  0  0  0  0  0  0  0
    2.7520   17.4080   18.1600 N   0  0  0  0  0  0  0  0  0  0  0  0
    3.8810   17.5940   19.0950 C   0  0  0  0  0  0  0  0  0  0  0  0
    3.5380   17.2710   20.5570 C   0  0  0  0  0  0  0  0  0  0  0  0
    2.1800   15.8100   22.1090 C   0  0  0  0  0  0  0  0  0  0  0  0
    1.0370   16.5420   22.6420 N   0  0  0  0  0  0  0  0  0  0  0  0
  1 26  1  0
  1  6  2  0
  2  1  1  0
  3  2  2  0
  3  4  1  0
  4  5  2  0
  5  6  1  0
  7  4  1  0
  7  8  1  0
  9  8  1  0
  9 10  1  0
 10 11  2  0
 12 18  1  0
 12 10  1  0
 13 12  1  0
 14 13  1  0
 14  9  1  0
 15 17  1  0
 15 14  2  0
 16 15  1  0
 17  7  2  0
 18 23  1  0
 19 20  1  0
 19 18  2  0
 20 21  2  0
 21 22  1  0
 23 22  2  0
 24 27  1  0
 24 26  1  0
 25 24  2  0
 27 28  1  0
 28 32  1  0
 29 35  1  0
 30 29  1  0
 31 30  1  0
 32 31  1  0
 32 33  1  0
 33 34  1  0
 34 29  1  0
 35 36  1  0
M  END
$$$$
