lig_323
     RDKit          3D

 26 28  0  0  0  0  0  0  0  0999 V2000
    0.1180  -15.8910   11.9930 N   0  0  0  0  0  0  0  0  0  0  0  0
    0.5860  -16.0270   13.3730 C   0  0  0  0  0  0  0  0  0  0  0  0
    1.8370  -16.8730   13.6010 C   0  0  0  0  0  0  0  0  0  0  0  0
    1.8110  -18.2910   13.0300 C   0  0  0  0  0  0  0  0  0  0  0  0
    0.4780  -18.8920   13.1100 N   0  0  0  0  0  0  0  0  0  0  0  0
   -0.5940  -18.3700   12.2210 C   0  0  0  0  0  0  0  0  0  0  0  0
   -0.1820  -17.1730   11.3260 C   0  0  0  0  0  0  0  0  0  0  0  0
    0.3480  -20.2510   13.4190 C   0  0  0  0  0  0  0  0  0  0  0  0
    1.4800  -20.9890   13.8110 C   0  0  0  0  0  0  0  0  0  0  0  0
    1.3990  -22.3490   14.1290 C   0  0  0  0  0  0  0  0  0  0  0  0
    0.1730  -22.9980   14.0630 C   0  0  0  0  0  0  0  0  0  0  0  0
    0.0620  -24.6680   14.4550 Cl  0  0  0  0  0  0  0  0  0  0  0  0
   -0.9660  -22.2980   13.6810 C   0  0  0  0  0  0  0  0  0  0  0  0
   -0.8750  -20.9370   13.3620 C   0  0  0  0  0  0  0  0  0  0  0  0
    0.9890  -15.0200   11.1910 C   0  0  0  0  0  0  0  0  0  0  0  0
    0.5610  -14.9200    9.7180 C   0  0  0  0  0  0  0  0  0  0  0  0
    1.6230  -14.2940    8.8130 C   0  0  0  0  0  0  0  0  0  0  0  0
    1.4840  -12.6260    7.0970 O   0  0  0  0  0  0  0  0  0  0  0  0
    1.1540  -12.9740    8.2300 C   0  0  0  0  0  0  0  0  0  0  0  0
    0.2660  -12.0750    9.0310 C   0  0  0  0  0  0  0  0  0  0  0  0
    0.7610  -11.1720    9.9830 C   0  0  0  0  0  0  0  0  0  0  0  0
   -0.1200  -10.3620   10.7050 C   0  0  0  0  0  0  0  0  0  0  0  0
   -1.4890  -10.4560   10.4800 C   0  0  0  0  0  0  0  0  0  0  0  0
   -2.3270   -9.6770   11.1750 F   0  0  0  0  0  0  0  0  0  0  0  0
   -1.9980  -11.3490    9.5460 C   0  0  0  0  0  0  0  0  0  0  0  0
   -1.1210  -12.1610    8.8230 C   0  0  0  0  0  0  0  0  0  0  0  0
  1  2  1  0
  2  3  1  0
  4  5  1  0
  4  3  1  0
  5  8  1  0
  6  5  1  0
  7  1  1  0
  7  6  1  0
  8  9  1  0
  9 10  2  0
 11 10  1  0
 11 12  1  0
 13 11  2  0
 14  8  2  0
 14 13  1  0
 15  1  1  0
 16 15  1  0
 17 16  1  0
 18 19  2  0
 19 17  1  0
 19 20  1  0
 20 21  1  0
 21 22  2  0
 23 22  1  0
 23 24  1  0
 25 23  2  0
 26 20  2  0
 26 25  1  0
M  END
$$$$
