lig_175
     RDKit          3D

 34 38  0  0  1  0  0  0  0  0999 V2000
    0.1990  -23.0300   13.6010 C   0  0  0  0  0  0  0  0  0  0  0  0
    1.2650  -22.0250   14.0330 C   0  0  0  0  0  0  0  0  0  0  0  0
    1.8440  -19.5190   15.2380 O   0  0  0  0  0  0  0  0  0  0  0  0
    1.3700  -19.5520   14.1080 C   0  0  0  0  0  0  0  0  0  0  0  0
    1.0460  -20.7180   13.4460 N   0  0  0  0  0  0  0  0  0  0  0  0
    1.0870  -18.2820   13.3840 C   0  0  0  0  0  0  0  0  0  0  0  0
   -0.0070  -18.2420   12.5140 C   0  0  0  0  0  0  0  0  0  0  0  0
   -0.3120  -17.0680   11.8180 C   0  0  0  0  0  0  0  0  0  0  0  0
    0.4610  -15.9070   11.9840 C   0  0  0  0  0  0  0  0  0  0  0  0
    1.5470  -15.9580   12.8750 C   0  0  0  0  0  0  0  0  0  0  0  0
    1.8570  -17.1310   13.5740 C   0  0  0  0  0  0  0  0  0  0  0  0
    0.1380  -14.6690   11.2550 C   0  0  0  0  0  0  0  0  0  0  0  0
   -0.7410  -13.7160   11.7970 C   0  0  0  0  0  0  0  0  0  0  0  0
   -1.0470  -12.5420   11.1040 C   0  0  0  0  0  0  0  0  0  0  0  0
   -0.4790  -12.3000    9.8560 C   0  0  0  0  0  0  0  0  0  0  0  0
    0.3950  -13.2310    9.3000 C   0  0  0  0  0  0  0  0  0  0  0  0
    0.7000  -14.4050    9.9940 C   0  0  0  0  0  0  0  0  0  0  0  0
    0.1050  -24.2380   14.5420 C   0  0  0  0  0  0  0  0  0  0  0  0
   -1.3430  -24.4670   15.0040 C   0  0  0  0  0  0  0  0  0  0  0  0
   -1.4850  -24.6590   16.4570 N   0  0  0  0  0  0  0  0  0  0  0  0
   -2.1490  -25.9180   16.8360 C   0  0  0  0  0  0  0  0  0  0  0  0
   -3.6450  -25.9280   16.5300 C   0  0  0  0  0  0  0  0  0  0  0  0
   -4.3630  -24.7400   17.1710 C   0  0  0  0  0  0  0  0  0  0  0  0
   -3.6710  -23.4030   16.8330 C   0  0  1  0  0  0  0  0  0  0  0  0
   -4.3050  -22.1870   17.5060 C   0  0  0  0  0  0  0  0  0  0  0  0
   -5.7060  -22.0580   17.5730 C   0  0  0  0  0  0  0  0  0  0  0  0
   -6.3020  -20.9410   18.1580 C   0  0  0  0  0  0  0  0  0  0  0  0
   -5.5070  -19.9290   18.6710 C   0  0  0  0  0  0  0  0  0  0  0  0
   -4.1220  -20.0110   18.5960 C   0  0  0  0  0  0  0  0  0  0  0  0
   -3.5110  -21.1290   17.9970 C   0  0  0  0  0  0  0  0  0  0  0  0
   -2.0030  -21.1670   17.9460 C   0  0  0  0  0  0  0  0  0  0  0  0
   -1.4590  -22.1820   16.9460 C   0  0  0  0  0  0  0  0  0  0  0  0
   -2.1530  -23.5330   17.1580 C   0  0  2  0  0  0  0  0  0  0  0  0
   -6.1280  -18.8570   19.2400 O   0  0  0  0  0  0  0  0  0  0  0  0
  1  2  1  0
  1 18  1  0
  4  3  2  0
  5  2  1  0
  5  4  1  0
  6 11  2  0
  6  4  1  0
  7  6  1  0
  8  9  1  0
  8  7  2  0
  9 10  2  0
 10 11  1  0
 12 13  2  0
 12  9  1  0
 14 13  1  0
 15 14  2  0
 16 15  1  0
 16 17  2  0
 17 12  1  0
 18 19  1  0
 19 20  1  0
 20 21  1  0
 20 33  1  0
 22 21  1  0
 22 23  1  0
 24 33  1  0
 24 23  1  1
 24 25  1  0
 25 26  1  0
 25 30  2  0
 26 27  2  0
 27 28  1  0
 28 34  1  0
 29 28  2  0
 30 29  1  0
 31 30  1  0
 32 31  1  0
 33 32  1  6
M  END
$$$$
