lig_056
     RDKit          3D

 28 32  0  0  1  0  0  0  0  0999 V2000
   -1.5800    5.4430   17.8320 C   0  0  0  0  0  0  0  0  0  0  0  0
   -0.2690    5.2650   18.2970 C   0  0  0  0  0  0  0  0  0  0  0  0
    0.6830    6.2830   18.1600 C   0  0  0  0  0  0  0  0  0  0  0  0
    0.3380    7.4900   17.5590 C   0  0  0  0  0  0  0  0  0  0  0  0
   -0.9640    7.6760   17.0930 C   0  0  0  0  0  0  0  0  0  0  0  0
   -1.9440    6.6590   17.2210 C   0  0  0  0  0  0  0  0  0  0  0  0
   -3.2800    6.8470   16.7420 N   0  0  0  0  0  0  0  0  0  0  0  0
   -3.6160    7.9670   16.1630 C   0  0  0  0  0  0  0  0  0  0  0  0
   -4.8880    8.1720   15.6910 N   0  0  0  0  0  0  0  0  0  0  0  0
   -2.6730    9.0000   16.0310 N   0  0  0  0  0  0  0  0  0  0  0  0
   -2.9380   10.2210   15.5110 N   0  0  0  0  0  0  0  0  0  0  0  0
   -1.7360   10.8090   15.6250 C   0  0  0  0  0  0  0  0  0  0  0  0
   -0.7570   10.0390   16.2170 N   0  0  0  0  0  0  0  0  0  0  0  0
   -1.3840    8.9090   16.4660 C   0  0  0  0  0  0  0  0  0  0  0  0
   -1.4720   12.2020   15.1500 C   0  0  2  0  0  0  0  0  0  0  0  0
   -0.3480   12.8760   15.9620 C   0  0  0  0  0  0  0  0  0  0  0  0
   -0.8740   14.0100   16.8330 C   0  0  0  0  0  0  0  0  0  0  0  0
   -1.6020   15.0590   15.9910 C   0  0  0  0  0  0  0  0  0  0  0  0
   -2.4930   14.4490   14.9960 N   0  0  0  0  0  0  0  0  0  0  0  0
   -3.3400   15.3040   14.3390 C   0  0  0  0  0  0  0  0  0  0  0  0
   -3.2500   16.6220   14.4040 N   0  0  0  0  0  0  0  0  0  0  0  0
   -4.2000   17.2880   13.6610 N   0  0  0  0  0  0  0  0  0  0  0  0
   -4.9950   16.4570   13.0300 C   0  0  0  0  0  0  0  0  0  0  0  0
   -6.1140   16.8600   12.1440 C   0  0  0  0  0  0  0  0  0  0  0  0
   -4.6400   14.8050   13.3040 S   0  0  0  0  0  0  0  0  0  0  0  0
   -2.7790   13.0210   15.1500 C   0  0  0  0  0  0  0  0  0  0  0  0
   -2.3350    3.3760   18.7690 C   0  0  0  0  0  0  0  0  0  0  0  0
   -2.5720    4.4980   17.9310 O   0  0  0  0  0  0  0  0  0  0  0  0
  1 28  1  0
  1  2  1  0
  3  2  2  0
  4  3  1  0
  5  6  1  0
  5  4  2  0
  6  1  2  0
  7  6  1  0
  8  7  2  0
  9  8  1  0
 10  8  1  0
 10 14  1  0
 11 12  2  0
 11 10  1  0
 12 13  1  0
 13 14  2  0
 14  5  1  0
 15 26  1  0
 15 12  1  1
 15 16  1  0
 16 17  1  0
 18 17  1  0
 19 26  1  0
 19 18  1  0
 20 21  2  0
 20 19  1  0
 22 21  1  0
 23 25  1  0
 23 22  2  0
 24 23  1  0
 25 20  1  0
 28 27  1  0
M  END
$$$$
