lig_253
     RDKit          3D

 24 26  0  0  0  0  0  0  0  0999 V2000
   -4.6080    8.5490   15.5980 C   0  0  0  0  0  0  0  0  0  0  0  0
   -5.1780    7.9080   14.5650 N   0  0  0  0  0  0  0  0  0  0  0  0
   -5.2800    6.6560   15.0260 N   0  0  0  0  0  0  0  0  0  0  0  0
   -4.8310    6.5560   16.3100 C   0  0  0  0  0  0  0  0  0  0  0  0
   -4.4200    7.7410   16.7050 N   0  0  0  0  0  0  0  0  0  0  0  0
   -2.7270   11.8630   15.4520 C   0  0  0  0  0  0  0  0  0  0  0  0
   -3.7740   12.7430   15.7410 C   0  0  0  0  0  0  0  0  0  0  0  0
   -5.0580   12.2540   15.9830 C   0  0  0  0  0  0  0  0  0  0  0  0
   -5.3050   10.8830   15.9360 C   0  0  0  0  0  0  0  0  0  0  0  0
   -4.2790    9.9730   15.6300 C   0  0  0  0  0  0  0  0  0  0  0  0
   -2.9900   10.4770   15.3750 C   0  0  0  0  0  0  0  0  0  0  0  0
   -0.8170   13.0810   16.2090 C   0  0  0  0  0  0  0  0  0  0  0  0
   -1.4300   12.2500   15.2310 O   0  0  0  0  0  0  0  0  0  0  0  0
   -1.9440    9.6090   15.1550 O   0  0  0  0  0  0  0  0  0  0  0  0
   -1.2440    9.3530   16.3720 C   0  0  0  0  0  0  0  0  0  0  0  0
   -4.8310    5.2830   17.0800 C   0  0  0  0  0  0  0  0  0  0  0  0
   -3.4580    4.8860   17.5770 C   0  0  0  0  0  0  0  0  0  0  0  0
   -3.2550    3.6310   18.1700 C   0  0  0  0  0  0  0  0  0  0  0  0
   -1.9890    3.2580   18.6270 C   0  0  0  0  0  0  0  0  0  0  0  0
   -0.9080    4.1360   18.5020 C   0  0  0  0  0  0  0  0  0  0  0  0
    0.6290    3.6090   19.0880 Cl  0  0  0  0  0  0  0  0  0  0  0  0
   -1.1000    5.3900   17.9150 C   0  0  0  0  0  0  0  0  0  0  0  0
    0.1850    6.5300   17.7230 Cl  0  0  0  0  0  0  0  0  0  0  0  0
   -2.3700    5.7630   17.4560 C   0  0  0  0  0  0  0  0  0  0  0  0
  1 10  1  0
  1  5  1  0
  2  3  1  0
  2  1  2  0
  3  4  1  0
  4  5  2  0
  4 16  1  0
  6  7  1  0
  7  8  2  0
  9  8  1  0
 10  9  2  0
 11  6  2  0
 11 10  1  0
 13  6  1  0
 13 12  1  0
 14 11  1  0
 14 15  1  0
 16 17  1  0
 17 18  1  0
 18 19  2  0
 20 19  1  0
 20 21  1  0
 22 20  2  0
 23 22  1  0
 24 17  2  0
 24 22  1  0
M  END
$$$$
