lig_404
     RDKit          3D

 27 30  0  0  0  0  0  0  0  0999 V2000
    1.4780  -18.0250   13.1630 N   0  0  0  0  0  0  0  0  0  0  0  0
    2.4430  -17.0030   12.6640 C   0  0  0  0  0  0  0  0  0  0  0  0
    1.8700  -15.5890   12.4000 C   0  0  0  0  0  0  0  0  0  0  0  0
    0.6930  -15.6900   11.5330 N   0  0  0  0  0  0  0  0  0  0  0  0
   -0.2820  -16.7450   11.8460 C   0  0  0  0  0  0  0  0  0  0  0  0
    0.0920  -17.5060   13.1410 C   0  0  0  0  0  0  0  0  0  0  0  0
    0.1880  -14.4870   11.0260 C   0  0  0  0  0  0  0  0  0  0  0  0
   -0.6830  -13.7830   11.8760 C   0  0  0  0  0  0  0  0  0  0  0  0
   -1.2560  -12.5770   11.4910 C   0  0  0  0  0  0  0  0  0  0  0  0
   -0.9690  -12.0490   10.2370 C   0  0  0  0  0  0  0  0  0  0  0  0
   -0.1070  -12.7160    9.3560 C   0  0  0  0  0  0  0  0  0  0  0  0
    0.1640  -12.1590    8.0950 C   0  0  0  0  0  0  0  0  0  0  0  0
    1.0160  -12.7960    7.1950 C   0  0  0  0  0  0  0  0  0  0  0  0
    1.6080  -14.0000    7.5460 C   0  0  0  0  0  0  0  0  0  0  0  0
    1.3460  -14.5660    8.7960 C   0  0  0  0  0  0  0  0  0  0  0  0
    0.4860  -13.9500    9.7380 C   0  0  0  0  0  0  0  0  0  0  0  0
    1.8250  -18.4790   14.5350 C   0  0  0  0  0  0  0  0  0  0  0  0
    0.9330  -20.6920   14.0950 N   0  0  0  0  0  0  0  0  0  0  0  0
    0.9260  -19.6400   14.9930 C   0  0  0  0  0  0  0  0  0  0  0  0
    0.2710  -19.5560   16.0270 O   0  0  0  0  0  0  0  0  0  0  0  0
   -3.2730  -23.3570   13.7810 C   0  0  0  0  0  0  0  0  0  0  0  0
   -1.7980  -23.2560   14.0340 C   0  0  0  0  0  0  0  0  0  0  0  0
   -1.0420  -24.4020   14.2940 C   0  0  0  0  0  0  0  0  0  0  0  0
    0.3330  -24.3050   14.4950 C   0  0  0  0  0  0  0  0  0  0  0  0
    0.9620  -23.0610   14.4270 C   0  0  0  0  0  0  0  0  0  0  0  0
    0.2250  -21.9030   14.1540 C   0  0  0  0  0  0  0  0  0  0  0  0
   -1.1530  -22.0090   13.9520 C   0  0  0  0  0  0  0  0  0  0  0  0
  1 17  1  0
  2  1  1  0
  3  2  1  0
  4  5  1  0
  4  3  1  0
  5  6  1  0
  6  1  1  0
  7  4  1  0
  7  8  2  0
  9  8  1  0
 10  9  2  0
 11 16  1  0
 11 10  1  0
 12 11  2  0
 13 14  2  0
 13 12  1  0
 14 15  1  0
 15 16  2  0
 16  7  1  0
 17 19  1  0
 18 26  1  0
 18 19  1  0
 19 20  2  0
 21 22  1  0
 22 23  1  0
 23 24  2  0
 25 24  1  0
 26 25  2  0
 27 22  2  0
 27 26  1  0
M  END
$$$$
