lig_055
     RDKit          3D

 31 33  0  0  1  0  0  0  0  0999 V2000
    0.4030  -14.4420   11.6540 N   0  0  0  0  0  0  0  0  0  0  0  0
   -0.6800  -15.2420   12.2660 C   0  0  0  0  0  0  0  0  0  0  0  0
   -0.1590  -16.0550   13.4760 C   0  0  0  0  0  0  0  0  0  0  0  0
    1.0250  -16.9050   13.2110 N   0  0  0  0  0  0  0  0  0  0  0  0
    2.0680  -16.0490   12.5970 C   0  0  0  0  0  0  0  0  0  0  0  0
    1.6180  -15.2380   11.3570 C   0  0  0  0  0  0  0  0  0  0  0  0
    0.3650  -12.4150    8.5020 C   0  0  0  0  0  0  0  0  0  0  0  0
    0.7440  -13.3690    9.4580 C   0  0  0  0  0  0  0  0  0  0  0  0
    0.0680  -13.4920   10.6800 C   0  0  0  0  0  0  0  0  0  0  0  0
   -1.0250  -12.6340   10.8940 C   0  0  0  0  0  0  0  0  0  0  0  0
   -1.4200  -11.6650    9.9530 C   0  0  0  0  0  0  0  0  0  0  0  0
   -0.7140  -11.5650    8.7490 C   0  0  0  0  0  0  0  0  0  0  0  0
   -2.6150  -10.7860   10.2250 C   0  0  0  0  0  0  0  0  0  0  0  0
   -2.6560   -9.6850    9.4250 F   0  0  0  0  0  0  0  0  0  0  0  0
   -2.6530  -10.3180   11.5030 F   0  0  0  0  0  0  0  0  0  0  0  0
   -3.7930  -11.4390   10.0260 F   0  0  0  0  0  0  0  0  0  0  0  0
    1.6720  -12.2330    6.2680 N   0  0  0  0  0  0  0  0  0  0  0  0
    1.0900  -12.3160    7.2680 C   0  0  0  0  0  0  0  0  0  0  0  0
    0.7260  -18.0730   12.3730 C   0  0  0  0  0  0  0  0  0  0  0  0
    1.4870  -19.3550   12.7580 C   0  0  0  0  0  0  0  0  0  0  0  0
    0.5990  -20.6000   12.9690 C   0  0  1  0  0  0  0  0  0  0  0  0
   -0.1590  -21.0220   11.6960 C   0  0  0  0  0  0  0  0  0  0  0  0
   -0.4620  -22.5230   11.6080 C   0  0  0  0  0  0  0  0  0  0  0  0
   -0.6480  -23.1960   12.9670 C   0  0  1  0  0  0  0  0  0  0  0  0
    0.5690  -22.9750   13.8790 C   0  0  0  0  0  0  0  0  0  0  0  0
    1.4360  -21.7710   13.4950 C   0  0  0  0  0  0  0  0  0  0  0  0
   -1.8570  -22.6650   13.6490 N   0  0  0  0  0  0  0  0  0  0  0  0
   -2.9900  -23.7430   14.2290 S   0  0  0  0  0  0  0  0  0  0  0  0
   -2.2780  -24.6970   15.0350 O   0  0  0  0  0  0  0  0  0  0  0  0
   -4.1470  -23.0170   14.6770 O   0  0  0  0  0  0  0  0  0  0  0  0
   -3.3550  -24.4680   12.7880 N   0  0  0  0  0  0  0  0  0  0  0  0
  1  2  1  0
  2  3  1  0
  4  3  1  0
  5  4  1  0
  6  1  1  0
  6  5  1  0
  7 12  1  0
  7  8  2  0
  8  9  1  0
  9 10  2  0
  9  1  1  0
 11 13  1  0
 11 10  1  0
 12 11  2  0
 13 15  1  0
 14 13  1  0
 16 13  1  0
 17 18  3  0
 18  7  1  0
 19 20  1  0
 19  4  1  0
 21 20  1  6
 21 26  1  0
 22 21  1  0
 23 22  1  0
 23 24  1  0
 24 27  1  1
 24 25  1  0
 26 25  1  0
 27 28  1  0
 28 30  2  0
 28 29  2  0
 31 28  1  0
M  END
$$$$
