lig_050
     RDKit          3D

 27 30  0  0  0  0  0  0  0  0999 V2000
   -4.2580    8.6200   15.9330 C   0  0  0  0  0  0  0  0  0  0  0  0
   -2.9320    8.8950   16.0590 C   0  0  0  0  0  0  0  0  0  0  0  0
   -2.4730   10.2240   15.9960 C   0  0  0  0  0  0  0  0  0  0  0  0
   -1.2980   10.8010   16.1000 N   0  0  0  0  0  0  0  0  0  0  0  0
   -1.5970   12.1420   15.9600 C   0  0  0  0  0  0  0  0  0  0  0  0
   -2.9020   12.4200   15.7840 N   0  0  0  0  0  0  0  0  0  0  0  0
   -3.4220   11.1720   15.7910 N   0  0  0  0  0  0  0  0  0  0  0  0
   -4.7840   10.8830   15.6610 C   0  0  0  0  0  0  0  0  0  0  0  0
   -5.6670   11.9180   15.4690 N   0  0  0  0  0  0  0  0  0  0  0  0
   -5.1870    9.6460   15.7430 N   0  0  0  0  0  0  0  0  0  0  0  0
   -0.4950   13.2500   16.0130 C   0  0  0  0  0  0  0  0  0  0  0  0
    0.5340   13.4130   15.1050 C   0  0  0  0  0  0  0  0  0  0  0  0
    1.2890   14.5300   15.5360 C   0  0  0  0  0  0  0  0  0  0  0  0
    0.6770   14.9830   16.6800 C   0  0  0  0  0  0  0  0  0  0  0  0
   -0.4030   14.2170   16.9780 O   0  0  0  0  0  0  0  0  0  0  0  0
   -4.7340    7.3000   16.0030 N   0  0  0  0  0  0  0  0  0  0  0  0
   -5.3780    6.6980   14.8310 C   0  0  0  0  0  0  0  0  0  0  0  0
   -4.4950    6.3700   17.1190 C   0  0  0  0  0  0  0  0  0  0  0  0
   -3.9690    5.0270   16.5980 C   0  0  0  0  0  0  0  0  0  0  0  0
   -0.3760    3.7770   18.6530 C   0  0  0  0  0  0  0  0  0  0  0  0
   -0.5100    5.0910   18.2070 C   0  0  0  0  0  0  0  0  0  0  0  0
   -1.6750    5.4960   17.5480 C   0  0  0  0  0  0  0  0  0  0  0  0
   -2.7240    4.5930   17.3310 C   0  0  0  0  0  0  0  0  0  0  0  0
   -2.5840    3.2750   17.7770 C   0  0  0  0  0  0  0  0  0  0  0  0
   -1.4190    2.8740   18.4330 C   0  0  0  0  0  0  0  0  0  0  0  0
    0.9000    1.8480   19.1990 C   0  0  0  0  0  0  0  0  0  0  0  0
    0.7050    3.2530   19.3060 O   0  0  0  0  0  0  0  0  0  0  0  0
  1 16  1  0
  1  2  2  0
  3  2  1  0
  3  4  2  0
  5 11  1  0
  5  4  1  0
  6  7  1  0
  6  5  2  0
  7  3  1  0
  8 10  2  0
  8  7  1  0
  9  8  1  0
 10  1  1  0
 11 15  1  0
 12 13  1  0
 12 11  2  0
 13 14  2  0
 14 15  1  0
 16 18  1  0
 17 16  1  0
 19 18  1  0
 19 23  1  0
 20 27  1  0
 21 20  1  0
 22 21  2  0
 23 22  1  0
 23 24  2  0
 24 25  1  0
 25 20  2  0
 26 27  1  0
M  END
$$$$
