lig_070
     RDKit          3D

 31 34  0  0  0  0  0  0  0  0999 V2000
   -1.9840    6.4420   17.0120 C   0  0  0  0  0  0  0  0  0  0  0  0
   -1.0630    5.5620   17.5250 C   0  0  0  0  0  0  0  0  0  0  0  0
   -1.5670    4.3860   18.0520 C   0  0  0  0  0  0  0  0  0  0  0  0
   -0.6470    3.4300   18.6010 N   0  0  0  0  0  0  0  0  0  0  0  0
    0.6930    3.6800   18.5990 N   0  0  0  0  0  0  0  0  0  0  0  0
    1.2580    2.6150   19.1700 C   0  0  0  0  0  0  0  0  0  0  0  0
    2.7300    2.5520   19.3330 C   0  0  0  0  0  0  0  0  0  0  0  0
    0.3000    1.6610   19.5500 C   0  0  0  0  0  0  0  0  0  0  0  0
   -0.9180    2.1920   19.1800 C   0  0  0  0  0  0  0  0  0  0  0  0
   -2.2730    1.6100   19.3430 C   0  0  0  0  0  0  0  0  0  0  0  0
   -2.8920    4.1040   18.0660 N   0  0  0  0  0  0  0  0  0  0  0  0
   -3.7200    5.0270   17.5370 C   0  0  0  0  0  0  0  0  0  0  0  0
   -3.3000    6.1910   17.0080 N   0  0  0  0  0  0  0  0  0  0  0  0
   -5.1790    4.7410   17.5360 C   0  0  0  0  0  0  0  0  0  0  0  0
   -6.0940    5.5610   18.2040 C   0  0  0  0  0  0  0  0  0  0  0  0
   -7.4540    5.2510   18.1730 C   0  0  0  0  0  0  0  0  0  0  0  0
   -7.8780    4.1290   17.4780 C   0  0  0  0  0  0  0  0  0  0  0  0
   -6.9230    3.3590   16.8400 C   0  0  0  0  0  0  0  0  0  0  0  0
   -5.6020    3.6370   16.8540 N   0  0  0  0  0  0  0  0  0  0  0  0
   -0.7440    8.6050   16.8540 C   0  0  0  0  0  0  0  0  0  0  0  0
   -0.0010    8.4980   17.8250 O   0  0  0  0  0  0  0  0  0  0  0  0
   -1.6690    7.6740   16.4390 N   0  0  0  0  0  0  0  0  0  0  0  0
   -0.6560    9.8210   15.9410 C   0  0  0  0  0  0  0  0  0  0  0  0
   -5.5460   11.0420   15.6890 C   0  0  0  0  0  0  0  0  0  0  0  0
   -4.1290   11.4140   16.0130 C   0  0  0  0  0  0  0  0  0  0  0  0
   -3.8360   12.6590   16.5830 C   0  0  0  0  0  0  0  0  0  0  0  0
   -2.5200   13.0080   16.9090 C   0  0  0  0  0  0  0  0  0  0  0  0
   -2.2220   14.3360   17.5400 C   0  0  0  0  0  0  0  0  0  0  0  0
   -1.4950   12.0800   16.6960 C   0  0  0  0  0  0  0  0  0  0  0  0
   -1.7700   10.8190   16.1470 C   0  0  0  0  0  0  0  0  0  0  0  0
   -3.0910   10.4950   15.8070 C   0  0  0  0  0  0  0  0  0  0  0  0
  1  2  2  0
  2  3  1  0
  3 11  2  0
  3  4  1  0
  4  9  1  0
  5  4  1  0
  5  6  2  0
  6  7  1  0
  6  8  1  0
  9 10  1  0
  9  8  2  0
 12 11  1  0
 13  1  1  0
 13 12  2  0
 14 12  1  0
 14 15  2  0
 16 15  1  0
 17 16  2  0
 18 19  2  0
 18 17  1  0
 19 14  1  0
 20 21  2  0
 22 20  1  0
 22  1  1  0
 23 30  1  0
 23 20  1  0
 24 25  1  0
 25 26  2  0
 26 27  1  0
 27 28  1  0
 29 27  2  0
 30 29  1  0
 31 25  1  0
 31 30  2  0
M  END
$$$$
