lig_092
     RDKit          3D

 25 27  0  0  0  0  0  0  0  0999 V2000
   -4.1060    7.2150   16.0240 C   0  0  0  0  0  0  0  0  0  0  0  0
   -4.9680    8.0190   15.3630 N   0  0  0  0  0  0  0  0  0  0  0  0
   -4.6200    9.3160   15.1180 N   0  0  0  0  0  0  0  0  0  0  0  0
   -3.4300    9.7810   15.5360 C   0  0  0  0  0  0  0  0  0  0  0  0
   -3.1030   11.1030   15.3050 N   0  0  0  0  0  0  0  0  0  0  0  0
   -2.5430    9.0390   16.2020 N   0  0  0  0  0  0  0  0  0  0  0  0
   -2.8760    7.7390   16.4210 C   0  0  0  0  0  0  0  0  0  0  0  0
   -3.5630    2.2300   15.8060 C   0  0  0  0  0  0  0  0  0  0  0  0
   -4.3600    3.4490   16.1680 C   0  0  0  0  0  0  0  0  0  0  0  0
   -3.8440    4.7170   15.9290 C   0  0  0  0  0  0  0  0  0  0  0  0
   -4.5990    5.8490   16.2600 C   0  0  0  0  0  0  0  0  0  0  0  0
   -5.8480    5.6390   16.8610 C   0  0  0  0  0  0  0  0  0  0  0  0
   -6.3120    4.3410   17.0800 C   0  0  0  0  0  0  0  0  0  0  0  0
   -5.5730    3.2520   16.7290 N   0  0  0  0  0  0  0  0  0  0  0  0
   -7.6700    4.1490   17.7420 C   0  0  0  0  0  0  0  0  0  0  0  0
   -8.4130    5.2860   17.8470 F   0  0  0  0  0  0  0  0  0  0  0  0
   -8.4530    3.2500   17.0770 F   0  0  0  0  0  0  0  0  0  0  0  0
   -7.5610    3.6630   19.0150 F   0  0  0  0  0  0  0  0  0  0  0  0
   -1.8120    6.9660   17.0890 C   0  0  0  0  0  0  0  0  0  0  0  0
   -0.4920    7.4540   17.1180 C   0  0  0  0  0  0  0  0  0  0  0  0
    0.5280    6.7380   17.7530 C   0  0  0  0  0  0  0  0  0  0  0  0
    0.2350    5.5220   18.3560 C   0  0  0  0  0  0  0  0  0  0  0  0
    1.2110    4.8360   18.9660 F   0  0  0  0  0  0  0  0  0  0  0  0
   -1.0530    5.0050   18.3310 C   0  0  0  0  0  0  0  0  0  0  0  0
   -2.0720    5.7210   17.6940 C   0  0  0  0  0  0  0  0  0  0  0  0
  1 11  1  0
  1  7  2  0
  2  1  1  0
  3  2  2  0
  3  4  1  0
  4  6  2  0
  5  4  1  0
  6  7  1  0
  7 19  1  0
  8  9  1  0
  9 14  2  0
 10  9  1  0
 10 11  2  0
 11 12  1  0
 12 13  2  0
 13 15  1  0
 14 13  1  0
 15 16  1  0
 15 18  1  0
 17 15  1  0
 19 20  1  0
 19 25  2  0
 20 21  2  0
 21 22  1  0
 22 23  1  0
 24 22  2  0
 25 24  1  0
M  END
$$$$
