lig_022
     RDKit          3D

 34 37  0  0  1  0  0  0  0  0999 V2000
    0.8070  -20.3240   13.6840 C   0  0  1  0  0  0  0  0  0  0  0  0
   -0.5780  -20.3980   13.0300 C   0  0  0  0  0  0  0  0  0  0  0  0
   -1.3480  -21.6360   13.4840 C   0  0  0  0  0  0  0  0  0  0  0  0
   -0.5600  -22.9330   13.2270 C   0  0  1  0  0  0  0  0  0  0  0  0
    0.8310  -22.8510   13.8760 C   0  0  0  0  0  0  0  0  0  0  0  0
    1.5980  -21.6080   13.4250 C   0  0  0  0  0  0  0  0  0  0  0  0
    1.9590  -18.1640   14.0430 C   0  0  0  0  0  0  0  0  0  0  0  0
    1.8540  -18.2180   15.2640 O   0  0  0  0  0  0  0  0  0  0  0  0
    1.5470  -19.1720   13.1910 N   0  0  0  0  0  0  0  0  0  0  0  0
    2.5600  -16.9650   13.3330 C   0  0  0  0  0  0  0  0  0  0  0  0
    0.0600  -13.8260   10.3290 C   0  0  0  0  0  0  0  0  0  0  0  0
    0.4070  -14.7730   11.3560 N   0  0  0  0  0  0  0  0  0  0  0  0
   -0.5430  -15.2460   12.1870 N   0  0  0  0  0  0  0  0  0  0  0  0
    0.1290  -16.0870   12.9810 C   0  0  0  0  0  0  0  0  0  0  0  0
    1.5090  -16.1510   12.6740 C   0  0  0  0  0  0  0  0  0  0  0  0
    1.6390  -15.2910   11.6100 C   0  0  0  0  0  0  0  0  0  0  0  0
    2.7710  -15.0280   10.9450 F   0  0  0  0  0  0  0  0  0  0  0  0
   -1.3750  -24.1410   13.7330 C   0  0  0  0  0  0  0  0  0  0  0  0
   -0.8320  -24.8160   15.0050 C   0  0  0  0  0  0  0  0  0  0  0  0
   -1.6140  -24.5440   16.2250 N   0  0  0  0  0  0  0  0  0  0  0  0
   -2.9320  -23.9530   15.9080 C   0  0  0  0  0  0  0  0  0  0  0  0
   -3.7220  -23.3680   17.0910 C   0  0  0  0  0  0  0  0  0  0  0  0
   -3.2480  -22.0060   17.4900 C   0  0  0  0  0  0  0  0  0  0  0  0
   -4.1760  -21.0800   17.9410 N   0  0  0  0  0  0  0  0  0  0  0  0
   -3.5740  -19.9490   18.2260 C   0  0  0  0  0  0  0  0  0  0  0  0
   -1.8810  -19.9220   17.9880 S   0  0  0  0  0  0  0  0  0  0  0  0
   -1.9400  -21.5520   17.4600 C   0  0  0  0  0  0  0  0  0  0  0  0
   -0.6990  -22.2760   17.0370 C   0  0  0  0  0  0  0  0  0  0  0  0
   -0.8170  -23.8000   17.2210 C   0  0  0  0  0  0  0  0  0  0  0  0
   -4.2160  -18.8770   18.6910 O   0  0  0  0  0  0  0  0  0  0  0  0
   -3.4440  -17.6720   18.7240 C   0  0  0  0  0  0  0  0  0  0  0  0
   -3.9390  -16.6230   17.7390 C   0  0  0  0  0  0  0  0  0  0  0  0
   -5.0190  -17.1070   17.0690 F   0  0  0  0  0  0  0  0  0  0  0  0
   -2.9820  -16.4000   16.7970 F   0  0  0  0  0  0  0  0  0  0  0  0
  1  9  1  6
  2  3  1  0
  2  1  1  0
  4  3  1  0
  4 18  1  1
  4  5  1  0
  6  1  1  0
  6  5  1  0
  7  8  2  0
  9  7  1  0
 10  7  1  0
 11 12  1  0
 12 16  1  0
 12 13  1  0
 13 14  2  0
 15 14  1  0
 15 10  1  0
 16 15  2  0
 17 16  1  0
 18 19  1  0
 19 20  1  0
 20 29  1  0
 21 20  1  0
 21 22  1  0
 22 23  1  0
 23 24  1  0
 24 25  2  0
 25 30  1  0
 26 25  1  0
 27 23  2  0
 27 26  1  0
 28 29  1  0
 28 27  1  0
 30 31  1  0
 32 31  1  0
 33 32  1  0
 34 32  1  0
M  END
$$$$
