lig_128
     RDKit          3D

 29 32  0  0  1  0  0  0  0  0999 V2000
    1.9610  -18.0370   14.6260 C   0  0  0  0  0  0  0  0  0  0  0  0
    1.8090  -16.6080   14.0560 C   0  0  1  0  0  0  0  0  0  0  0  0
    2.4980  -16.4670   12.6830 C   0  0  0  0  0  0  0  0  0  0  0  0
    1.9000  -15.3290   11.8650 C   0  0  0  0  0  0  0  0  0  0  0  0
    0.4160  -15.5750   11.5450 C   0  0  1  0  0  0  0  0  0  0  0  0
   -0.2880  -16.4170   12.6220 C   0  0  0  0  0  0  0  0  0  0  0  0
    0.3220  -16.1950   14.0030 C   0  0  0  0  0  0  0  0  0  0  0  0
   -0.2710  -14.3050   11.3610 N   0  0  0  0  0  0  0  0  0  0  0  0
   -0.0940  -13.5220   10.2360 C   0  0  0  0  0  0  0  0  0  0  0  0
    0.5630  -13.9160    9.2750 O   0  0  0  0  0  0  0  0  0  0  0  0
   -0.7250  -12.2080   10.2730 C   0  0  0  0  0  0  0  0  0  0  0  0
   -1.3720  -11.6350   11.3540 C   0  0  0  0  0  0  0  0  0  0  0  0
   -1.8840  -10.3370   11.0650 C   0  0  0  0  0  0  0  0  0  0  0  0
   -1.6140   -9.9560    9.7700 C   0  0  0  0  0  0  0  0  0  0  0  0
   -0.7500  -11.1580    8.9160 S   0  0  0  0  0  0  0  0  0  0  0  0
    1.6070  -19.1330   13.6070 C   0  0  0  0  0  0  0  0  0  0  0  0
   -1.0960  -22.2170   14.5910 N   0  0  0  0  0  0  0  0  0  0  0  0
   -0.9640  -20.9080   15.2700 C   0  0  0  0  0  0  0  0  0  0  0  0
    0.5040  -20.4420   15.4020 C   0  0  0  0  0  0  0  0  0  0  0  0
    1.2940  -20.4550   14.1570 N   0  0  0  0  0  0  0  0  0  0  0  0
    0.7560  -21.3990   13.1580 C   0  0  0  0  0  0  0  0  0  0  0  0
    0.0880  -22.6320   13.8040 C   0  0  0  0  0  0  0  0  0  0  0  0
   -3.5850  -23.4370   13.8230 C   0  0  0  0  0  0  0  0  0  0  0  0
   -2.8080  -23.8920   15.0280 C   0  0  0  0  0  0  0  0  0  0  0  0
   -3.2970  -24.9560   15.8030 C   0  0  0  0  0  0  0  0  0  0  0  0
   -2.6010  -25.3990   16.9260 C   0  0  0  0  0  0  0  0  0  0  0  0
   -1.4050  -24.7850   17.2840 C   0  0  0  0  0  0  0  0  0  0  0  0
   -0.9070  -23.7300   16.5180 C   0  0  0  0  0  0  0  0  0  0  0  0
   -1.5950  -23.2660   15.3840 C   0  0  0  0  0  0  0  0  0  0  0  0
  2  1  1  6
  3  2  1  0
  4  3  1  0
  5  8  1  1
  5  4  1  0
  5  6  1  0
  6  7  1  0
  7  2  1  0
  9 11  1  0
  9  8  1  0
 10  9  2  0
 11 12  2  0
 13 12  1  0
 14 13  2  0
 15 14  1  0
 15 11  1  0
 16 20  1  0
 16  1  1  0
 17 18  1  0
 17 29  1  0
 18 19  1  0
 20 19  1  0
 21 22  1  0
 21 20  1  0
 22 17  1  0
 23 24  1  0
 24 29  1  0
 24 25  2  0
 25 26  1  0
 26 27  2  0
 28 27  1  0
 29 28  2  0
M  END
$$$$
