lig_481
     RDKit          3D

 28 31  0  0  0  0  0  0  0  0999 V2000
   -1.5130   13.8540   14.8950 N   0  0  0  0  0  0  0  0  0  0  0  0
   -1.7620   12.5380   15.0950 C   0  0  0  0  0  0  0  0  0  0  0  0
   -2.9200   11.9250   15.0910 N   0  0  0  0  0  0  0  0  0  0  0  0
   -2.7820   10.5670   15.3350 C   0  0  0  0  0  0  0  0  0  0  0  0
   -4.0160    9.7350   15.3620 C   0  0  0  0  0  0  0  0  0  0  0  0
   -1.4780   10.1400   15.5290 C   0  0  0  0  0  0  0  0  0  0  0  0
   -0.4230   11.4890   15.3980 S   0  0  0  0  0  0  0  0  0  0  0  0
   -5.0810   18.2590   13.9610 C   0  0  0  0  0  0  0  0  0  0  0  0
   -4.1400   17.1120   14.1730 C   0  0  0  0  0  0  0  0  0  0  0  0
   -4.2660   15.9410   13.4260 C   0  0  0  0  0  0  0  0  0  0  0  0
   -3.4070   14.8550   13.6450 C   0  0  0  0  0  0  0  0  0  0  0  0
   -2.4070   14.9050   14.6200 C   0  0  0  0  0  0  0  0  0  0  0  0
   -2.3010   16.0840   15.3770 C   0  0  0  0  0  0  0  0  0  0  0  0
   -3.1570   17.1720   15.1620 C   0  0  0  0  0  0  0  0  0  0  0  0
   -1.0010    8.7870   15.8040 C   0  0  0  0  0  0  0  0  0  0  0  0
   -0.0720    8.3030   15.1670 O   0  0  0  0  0  0  0  0  0  0  0  0
   -1.6910    8.1390   16.8210 N   0  0  0  0  0  0  0  0  0  0  0  0
   -1.4820    6.8570   17.3150 C   0  0  0  0  0  0  0  0  0  0  0  0
    0.0130    6.3830   17.9760 S   0  0  0  0  0  0  0  0  0  0  0  0
   -0.5450    4.8170   18.3130 C   0  0  0  0  0  0  0  0  0  0  0  0
   -1.8560    4.6250   17.9260 C   0  0  0  0  0  0  0  0  0  0  0  0
   -2.4000    5.8210   17.3500 C   0  0  0  0  0  0  0  0  0  0  0  0
   -2.5610    3.3160   18.1410 C   0  0  0  0  0  0  0  0  0  0  0  0
   -1.5730    2.1760   18.4350 C   0  0  0  0  0  0  0  0  0  0  0  0
   -0.5020    2.5990   19.4500 C   0  0  0  0  0  0  0  0  0  0  0  0
    0.3380    3.7770   18.9320 C   0  0  0  0  0  0  0  0  0  0  0  0
   -3.7410    5.9500   16.8630 C   0  0  0  0  0  0  0  0  0  0  0  0
   -4.8120    6.0470   16.4280 N   0  0  0  0  0  0  0  0  0  0  0  0
  1  2  1  0
  2  7  1  0
  3  2  2  0
  3  4  1  0
  4  5  1  0
  4  6  2  0
  6 15  1  0
  7  6  1  0
  8  9  1  0
  9 14  2  0
 10 11  2  0
 10  9  1  0
 11 12  1  0
 12  1  1  0
 12 13  2  0
 14 13  1  0
 15 17  1  0
 16 15  2  0
 17 18  1  0
 18 22  2  0
 18 19  1  0
 19 20  1  0
 20 26  1  0
 21 23  1  0
 21 20  2  0
 22 21  1  0
 23 24  1  0
 24 25  1  0
 26 25  1  0
 27 22  1  0
 28 27  3  0
M  END
$$$$
