lig_071
     RDKit          3D

 35 39  0  0  0  0  0  0  0  0999 V2000
   20.0700   19.7460    9.1180 O   0  0  0  0  0  0  0  0  0  0  0  0
   20.8350   19.0300    8.4930 C   0  0  0  0  0  0  0  0  0  0  0  0
   21.3500   19.3750    7.2700 N   0  0  0  0  0  0  0  0  0  0  0  0
   22.0860   18.3390    6.6430 C   0  0  0  0  0  0  0  0  0  0  0  0
   22.1240   17.2600    7.6180 N   0  0  0  0  0  0  0  0  0  0  0  0
   21.3920   17.6400    8.8680 C   0  0  0  0  0  0  0  0  0  0  0  0
   22.3460   17.8070   10.0630 C   0  0  0  0  0  0  0  0  0  0  0  0
   21.8040   17.1450   11.3330 C   0  0  0  0  0  0  0  0  0  0  0  0
   20.4160   17.5390   11.5290 N   0  0  0  0  0  0  0  0  0  0  0  0
   19.5220   17.0170   10.4850 C   0  0  0  0  0  0  0  0  0  0  0  0
   20.1970   16.7230    9.1400 C   0  0  0  0  0  0  0  0  0  0  0  0
   22.8120   16.0920    7.3420 C   0  0  0  0  0  0  0  0  0  0  0  0
   22.9990   15.6340    6.0220 C   0  0  0  0  0  0  0  0  0  0  0  0
   23.6920   14.4540    5.7200 C   0  0  0  0  0  0  0  0  0  0  0  0
   24.2300   13.6830    6.7380 C   0  0  0  0  0  0  0  0  0  0  0  0
   24.0700   14.0970    8.0510 C   0  0  0  0  0  0  0  0  0  0  0  0
   23.3730   15.2810    8.3390 C   0  0  0  0  0  0  0  0  0  0  0  0
   19.8850   17.2480   12.8650 C   0  0  0  0  0  0  0  0  0  0  0  0
   20.5290   18.0570   14.0010 C   0  0  0  0  0  0  0  0  0  0  0  0
   21.8790   17.5320   14.5200 C   0  0  0  0  0  0  0  0  0  0  0  0
   23.1110   18.4200   14.2210 C   0  0  0  0  0  0  0  0  0  0  0  0
   24.2450   18.0840   15.1930 C   0  0  0  0  0  0  0  0  0  0  0  0
   25.5300   18.6370   15.0560 C   0  0  0  0  0  0  0  0  0  0  0  0
   26.5420   18.3180   15.9640 C   0  0  0  0  0  0  0  0  0  0  0  0
   26.2730   17.4510   17.0150 C   0  0  0  0  0  0  0  0  0  0  0  0
   27.2450   17.1480   17.8870 F   0  0  0  0  0  0  0  0  0  0  0  0
   25.0100   16.8960   17.1770 C   0  0  0  0  0  0  0  0  0  0  0  0
   23.9990   17.2110   16.2680 C   0  0  0  0  0  0  0  0  0  0  0  0
   22.8500   19.9240   14.1480 C   0  0  0  0  0  0  0  0  0  0  0  0
   22.6620   20.7230   15.2890 C   0  0  0  0  0  0  0  0  0  0  0  0
   22.4410   22.0960   15.1690 C   0  0  0  0  0  0  0  0  0  0  0  0
   22.4140   22.6810   13.9100 C   0  0  0  0  0  0  0  0  0  0  0  0
   22.2030   23.9990   13.7980 F   0  0  0  0  0  0  0  0  0  0  0  0
   22.6110   21.9200   12.7660 C   0  0  0  0  0  0  0  0  0  0  0  0
   22.8320   20.5470   12.8850 C   0  0  0  0  0  0  0  0  0  0  0  0
  2  6  1  0
  2  1  2  0
  3  2  1  0
  4  3  1  0
  4  5  1  0
  5  6  1  0
  6 11  1  0
  6  7  1  0
  7  8  1  0
  8  9  1  0
  9 18  1  0
 10  9  1  0
 11 10  1  0
 12  5  1  0
 12 17  1  0
 13 12  2  0
 14 13  1  0
 14 15  2  0
 15 16  1  0
 16 17  2  0
 18 19  1  0
 19 20  1  0
 21 20  1  0
 21 22  1  0
 22 28  2  0
 23 22  1  0
 23 24  2  0
 24 25  1  0
 25 27  2  0
 25 26  1  0
 28 27  1  0
 29 21  1  0
 29 30  1  0
 31 30  2  0
 32 31  1  0
 33 32  1  0
 34 35  1  0
 34 32  2  0
 35 29  2  0
M  END
$$$$
