lig_305
     RDKit          3D

 31 35  0  0  0  0  0  0  0  0999 V2000
    0.6960  -21.4870   11.9260 C   0  0  0  0  0  0  0  0  0  0  0  0
   -5.3620  -26.0800   19.0720 C   0  0  0  0  0  0  0  0  0  0  0  0
   -4.3710  -25.6060   18.0860 C   0  0  0  0  0  0  0  0  0  0  0  0
   -3.1430  -26.0400   17.8740 N   0  0  0  0  0  0  0  0  0  0  0  0
   -2.6950  -25.2430   16.8520 C   0  0  0  0  0  0  0  0  0  0  0  0
   -1.4690  -25.2000   16.1790 C   0  0  0  0  0  0  0  0  0  0  0  0
   -1.2670  -24.2470   15.1470 C   0  0  0  0  0  0  0  0  0  0  0  0
   -2.3190  -23.3760   14.7750 C   0  0  0  0  0  0  0  0  0  0  0  0
   -3.5510  -23.4090   15.4710 C   0  0  0  0  0  0  0  0  0  0  0  0
   -3.6810  -24.3510   16.4810 C   0  0  0  0  0  0  0  0  0  0  0  0
   -4.7690  -24.5770   17.2730 O   0  0  0  0  0  0  0  0  0  0  0  0
   -2.2000  -22.3380   13.6750 C   0  0  0  0  0  0  0  0  0  0  0  0
   -1.3790  -22.7530   12.4450 C   0  0  0  0  0  0  0  0  0  0  0  0
    0.0710  -22.6440   12.5740 N   0  0  0  0  0  0  0  0  0  0  0  0
    0.6050  -22.9440   13.9040 C   0  0  0  0  0  0  0  0  0  0  0  0
    0.0930  -24.2730   14.4750 C   0  0  0  0  0  0  0  0  0  0  0  0
    1.5620  -20.5410   12.7740 C   0  0  0  0  0  0  0  0  0  0  0  0
    1.5130  -19.0540   12.4130 C   0  0  0  0  0  0  0  0  0  0  0  0
   -0.1540  -18.3180   12.4620 S   0  0  0  0  0  0  0  0  0  0  0  0
   -0.0380  -17.1140   11.2260 C   0  0  0  0  0  0  0  0  0  0  0  0
   -0.2130  -17.2960    9.9420 N   0  0  0  0  0  0  0  0  0  0  0  0
   -0.0120  -16.0930    9.3200 N   0  0  0  0  0  0  0  0  0  0  0  0
    0.2920  -15.1900   10.2350 C   0  0  0  0  0  0  0  0  0  0  0  0
    0.2750  -15.8020   11.4710 N   0  0  0  0  0  0  0  0  0  0  0  0
    0.5330  -15.2240   12.7650 C   0  0  0  0  0  0  0  0  0  0  0  0
    0.6090  -13.7580    9.9190 C   0  0  0  0  0  0  0  0  0  0  0  0
   -0.5640  -12.8150   10.1860 C   0  0  0  0  0  0  0  0  0  0  0  0
   -0.1640  -11.3650    9.9200 C   0  0  0  0  0  0  0  0  0  0  0  0
    0.8410  -11.2160    8.9170 O   0  0  0  0  0  0  0  0  0  0  0  0
    0.7990  -12.2250    7.9160 C   0  0  0  0  0  0  0  0  0  0  0  0
    1.2010  -13.5670    8.5160 C   0  0  0  0  0  0  0  0  0  0  0  0
  1 14  1  0
  1 17  1  0
  3  2  1  0
  4  3  2  0
  5  4  1  0
  6  5  1  0
  7  6  2  0
  8  7  1  0
  8  9  2  0
  9 10  1  0
 10  5  2  0
 10 11  1  0
 11  3  1  0
 12  8  1  0
 13 14  1  0
 13 12  1  0
 14 15  1  0
 15 16  1  0
 16  7  1  0
 18 19  1  0
 18 17  1  0
 20 24  1  0
 20 19  1  0
 21 20  2  0
 22 21  1  0
 22 23  2  0
 23 24  1  0
 24 25  1  0
 26 27  1  0
 26 23  1  0
 28 27  1  0
 29 28  1  0
 30 31  1  0
 30 29  1  0
 31 26  1  0
M  END
$$$$
