lig_361
     RDKit          3D

 25 28  0  0  1  0  0  0  0  0999 V2000
    1.6090  -18.5850   12.6330 C   0  0  0  0  0  0  0  0  0  0  0  0
    0.5400  -17.5810   12.7340 N   0  0  0  0  0  0  0  0  0  0  0  0
   -0.1900  -17.3910   11.4580 C   0  0  0  0  0  0  0  0  0  0  0  0
    0.3000  -16.2330   10.5530 C   0  0  0  0  0  0  0  0  0  0  0  0
    0.3590  -14.9540   11.2800 N   0  0  0  0  0  0  0  0  0  0  0  0
    0.2980  -15.0490   12.7470 C   0  0  0  0  0  0  0  0  0  0  0  0
    1.0910  -16.2890   13.2150 C   0  0  0  0  0  0  0  0  0  0  0  0
   -0.2250  -13.8270   10.7150 C   0  0  0  0  0  0  0  0  0  0  0  0
    0.0590  -13.4550    9.3990 C   0  0  0  0  0  0  0  0  0  0  0  0
   -0.5210  -12.3100    8.8500 C   0  0  0  0  0  0  0  0  0  0  0  0
   -1.3710  -11.5430    9.6290 C   0  0  0  0  0  0  0  0  0  0  0  0
   -1.5930  -11.9560   10.9280 C   0  0  0  0  0  0  0  0  0  0  0  0
   -1.0410  -13.0620   11.4760 N   0  0  0  0  0  0  0  0  0  0  0  0
    1.4780  -19.6490   13.7360 C   0  0  0  0  0  0  0  0  0  0  0  0
   -1.4760  -20.3170   13.4140 O   0  0  0  0  0  0  0  0  0  0  0  0
   -0.5780  -21.1210   13.5920 C   0  0  0  0  0  0  0  0  0  0  0  0
   -0.7820  -22.4270   14.2010 C   0  0  0  0  0  0  0  0  0  0  0  0
   -1.9670  -23.0070   14.6120 C   0  0  0  0  0  0  0  0  0  0  0  0
   -1.8880  -24.2830   15.1640 C   0  0  0  0  0  0  0  0  0  0  0  0
   -3.3240  -25.0680   15.6970 Cl  0  0  0  0  0  0  0  0  0  0  0  0
   -0.6520  -24.9390   15.2940 C   0  0  0  0  0  0  0  0  0  0  0  0
    0.5320  -24.3230   14.8710 C   0  0  0  0  0  0  0  0  0  0  0  0
    0.4520  -23.0550   14.3180 C   0  0  0  0  0  0  0  0  0  0  0  0
    1.5770  -22.1970   13.8310 C   0  0  0  0  0  0  0  0  0  0  0  0
    0.8850  -20.9580   13.2100 C   0  0  2  0  0  0  0  0  0  0  0  0
  1  2  1  0
  1 14  1  0
  2  7  1  0
  3  2  1  0
  4  5  1  0
  4  3  1  0
  5  6  1  0
  6  7  1  0
  8  5  1  0
  8 13  1  0
  9  8  2  0
 10  9  1  0
 10 11  2  0
 11 12  1  0
 12 13  2  0
 15 16  2  0
 16 17  1  0
 17 23  2  0
 17 18  1  0
 18 19  2  0
 19 21  1  0
 19 20  1  0
 22 21  2  0
 23 22  1  0
 24 23  1  0
 25 16  1  0
 25 14  1  1
 25 24  1  0
M  END
$$$$
