lig_004
     RDKit          3D

 33 36  0  0  1  0  0  0  0  0999 V2000
   21.2360   18.2380    8.3780 N   0  0  0  0  0  0  0  0  0  0  0  0
   21.6530   18.7840    9.6830 C   0  0  0  0  0  0  0  0  0  0  0  0
   21.6960   17.7070   10.7800 C   0  0  1  0  0  0  0  0  0  0  0  0
   22.6570   16.5900   10.3580 C   0  0  0  0  0  0  0  0  0  0  0  0
   22.2620   16.0120    8.9920 C   0  0  2  0  0  0  0  0  0  0  0  0
   23.1890   14.9000    8.5240 C   0  0  0  0  0  0  0  0  0  0  0  0
   23.8930   13.9880    9.3220 C   0  0  0  0  0  0  0  0  0  0  0  0
   24.6800   12.9770    8.7460 C   0  0  0  0  0  0  0  0  0  0  0  0
   24.7860   12.8200    7.3540 C   0  0  0  0  0  0  0  0  0  0  0  0
   24.0600   13.7150    6.5700 C   0  0  0  0  0  0  0  0  0  0  0  0
   23.9070   13.8540    5.2070 N   0  0  0  0  0  0  0  0  0  0  0  0
   23.0590   14.9050    4.9230 C   0  0  0  0  0  0  0  0  0  0  0  0
   22.6650   15.4550    6.1210 C   0  0  0  0  0  0  0  0  0  0  0  0
   23.2890   14.7100    7.1400 C   0  0  0  0  0  0  0  0  0  0  0  0
   21.7720   16.5950    6.4870 C   0  0  0  0  0  0  0  0  0  0  0  0
   22.1620   17.1750    7.9050 C   0  0  1  0  0  0  0  0  0  0  0  0
   22.1390   18.3340   12.1080 C   0  0  0  0  0  0  0  0  0  0  0  0
   23.3310   18.2950   12.4400 O   0  0  0  0  0  0  0  0  0  0  0  0
   21.1710   18.9020   12.9550 N   0  0  0  0  0  0  0  0  0  0  0  0
   19.8850   19.2580   12.5440 C   0  0  0  0  0  0  0  0  0  0  0  0
   19.5730   19.5030   11.3830 O   0  0  0  0  0  0  0  0  0  0  0  0
   18.9650   19.3670   13.5680 N   0  0  0  0  0  0  0  0  0  0  0  0
   17.5840   19.7190   13.2930 C   0  0  0  0  0  0  0  0  0  0  0  0
   17.2640   21.1440   13.7100 C   0  0  0  0  0  0  0  0  0  0  0  0
   21.6430   19.2770   14.2970 C   0  0  0  0  0  0  0  0  0  0  0  0
   22.2580   20.6820   14.3080 C   0  0  0  0  0  0  0  0  0  0  0  0
   21.4340   21.6850   15.1270 C   0  0  0  0  0  0  0  0  0  0  0  0
   20.3810   22.3730   14.3700 N   0  0  0  0  0  0  0  0  0  0  0  0
   19.9020   23.5410   15.1150 C   0  0  0  0  0  0  0  0  0  0  0  0
   20.8390   22.7910   13.0410 C   0  0  0  0  0  0  0  0  0  0  0  0
   20.9690   19.3130    7.4100 C   0  0  0  0  0  0  0  0  0  0  0  0
   22.1620   20.9120    5.8700 C   0  0  0  0  0  0  0  0  0  0  0  0
   22.1740   20.0530    6.8980 C   0  0  0  0  0  0  0  0  0  0  0  0
  1  2  1  0
  2  3  1  0
  3 17  1  1
  4  3  1  0
  5  4  1  1
  6  5  1  0
  6  7  1  0
  8  7  2  0
  9  8  1  0
 10 14  1  0
 10  9  2  0
 11 10  1  0
 12 11  1  0
 12 13  2  0
 13 15  1  0
 13 14  1  0
 14  6  2  0
 16 15  1  6
 16  1  1  0
 16  5  1  0
 17 18  2  0
 17 19  1  0
 19 25  1  0
 20 19  1  0
 20 22  1  0
 21 20  2  0
 23 22  1  0
 23 24  1  0
 25 26  1  0
 26 27  1  0
 28 29  1  0
 28 27  1  0
 30 28  1  0
 31  1  1  0
 32 33  2  0
 33 31  1  0
M  END
$$$$
