lig_067
     RDKit          3D

 24 28  0  0  1  0  0  0  0  0999 V2000
   18.4430   17.8960   10.2200 C   0  0  0  0  0  0  0  0  0  0  0  0
   19.4270   16.9290   10.3530 C   0  0  0  0  0  0  0  0  0  0  0  0
   20.6640   17.2510   10.9270 C   0  0  0  0  0  0  0  0  0  0  0  0
   20.9040   18.5840   11.3700 C   0  0  0  0  0  0  0  0  0  0  0  0
   19.8870   19.5760   11.2790 C   0  0  0  0  0  0  0  0  0  0  0  0
   18.6750   19.1950   10.6720 C   0  0  0  0  0  0  0  0  0  0  0  0
   20.1060   20.9010   11.7200 N   0  0  0  0  0  0  0  0  0  0  0  0
   18.9260   21.7390   12.0280 C   0  0  0  0  0  0  0  0  0  0  0  0
   19.3130   23.2030   12.3430 C   0  0  0  0  0  0  0  0  0  0  0  0
   20.3600   23.3400   13.3710 N   0  0  0  0  0  0  0  0  0  0  0  0
   21.5380   22.5850   12.9040 C   0  0  0  0  0  0  0  0  0  0  0  0
   21.2440   21.0820   12.6540 C   0  0  2  0  0  0  0  0  0  0  0  0
   22.4830   20.4210   12.0700 C   0  0  0  0  0  0  0  0  0  0  0  0
   22.2410   18.9270   11.9900 C   0  0  0  0  0  0  0  0  0  0  0  0
   21.6970   16.1420   11.0430 C   0  0  0  0  0  0  0  0  0  0  0  0
   22.3140   15.6900    9.7350 C   0  0  0  0  0  0  0  0  0  0  0  0
   22.1560   16.4520    8.5530 C   0  0  0  0  0  0  0  0  0  0  0  0
   22.7420   16.0500    7.3490 C   0  0  0  0  0  0  0  0  0  0  0  0
   23.4870   14.8910    7.3550 C   0  0  0  0  0  0  0  0  0  0  0  0
   23.6590   14.1490    8.4980 C   0  0  0  0  0  0  0  0  0  0  0  0
   23.0940   14.5210    9.7000 C   0  0  0  0  0  0  0  0  0  0  0  0
   24.4290   13.0480    8.2910 O   0  0  0  0  0  0  0  0  0  0  0  0
   24.7230   13.1840    6.8850 C   0  0  0  0  0  0  0  0  0  0  0  0
   24.1260   14.3520    6.2830 O   0  0  0  0  0  0  0  0  0  0  0  0
  1  2  2  0
  1  6  1  0
  2  3  1  0
  3 15  1  0
  3  4  2  0
  4 14  1  0
  5  4  1  0
  5  7  1  0
  6  5  2  0
  7  8  1  0
  7 12  1  0
  8  9  1  0
  9 10  1  0
 11 10  1  0
 12 13  1  6
 12 11  1  0
 14 13  1  0
 16 15  1  0
 17 16  1  0
 18 19  1  0
 18 17  2  0
 19 20  2  0
 20 21  1  0
 21 16  2  0
 22 20  1  0
 23 22  1  0
 24 23  1  0
 24 19  1  0
M  END
$$$$
