lig_115
     RDKit          3D

 30 32  0  0  1  0  0  0  0  0999 V2000
  -32.9510    6.3220    7.7290 C   0  0  0  0  0  0  0  0  0  0  0  0
  -34.3760    6.2280    8.0760 N   0  0  0  0  0  0  0  0  0  0  0  0
  -36.2940    5.0640    9.1540 C   0  0  0  0  0  0  0  0  0  0  0  0
  -34.7850    5.0250    8.8480 C   0  0  0  0  0  0  0  0  0  0  0  0
  -34.5210    3.8430    7.8910 C   0  0  0  0  0  0  0  0  0  0  0  0
  -33.9320    4.8840   10.1500 C   0  0  0  0  0  0  0  0  0  0  0  0
  -33.2570    3.5520   10.3830 C   0  0  0  0  0  0  0  0  0  0  0  0
  -33.7890    2.6300   11.2890 C   0  0  0  0  0  0  0  0  0  0  0  0
  -33.1660    1.3940   11.5070 C   0  0  0  0  0  0  0  0  0  0  0  0
  -31.9920    1.0380   10.8240 C   0  0  0  0  0  0  0  0  0  0  0  0
  -31.4730    1.9730    9.9110 C   0  0  0  0  0  0  0  0  0  0  0  0
  -32.0940    3.2070    9.6900 C   0  0  0  0  0  0  0  0  0  0  0  0
  -31.2810   -0.3090   11.0400 C   0  0  0  0  0  0  0  0  0  0  0  0
  -30.2630   -0.5470    9.9020 C   0  0  0  0  0  0  0  0  0  0  0  0
  -32.3190   -1.4510   11.0390 C   0  0  0  0  0  0  0  0  0  0  0  0
  -30.5040   -0.4000   12.3730 C   0  0  0  0  0  0  0  0  0  0  0  0
  -32.5630    7.6960    7.1120 C   0  0  2  0  0  0  0  0  0  0  0  0
  -31.0890    8.0350    7.2730 C   0  0  0  0  0  0  0  0  0  0  0  0
  -30.2370    7.0880    7.8700 C   0  0  0  0  0  0  0  0  0  0  0  0
  -28.8850    7.3730    8.0500 C   0  0  0  0  0  0  0  0  0  0  0  0
  -28.3520    8.5910    7.6510 C   0  0  0  0  0  0  0  0  0  0  0  0
  -29.1860    9.5410    7.0660 C   0  0  0  0  0  0  0  0  0  0  0  0
  -30.5480    9.2720    6.8760 C   0  0  0  0  0  0  0  0  0  0  0  0
  -31.3930   10.1510    6.2480 O   0  0  0  0  0  0  0  0  0  0  0  0
  -30.9160   11.4870    6.1620 C   0  0  0  0  0  0  0  0  0  0  0  0
  -29.4150   11.7540    6.1330 C   0  0  0  0  0  0  0  0  0  0  0  0
  -28.9260   12.8100    5.7370 O   0  0  0  0  0  0  0  0  0  0  0  0
  -28.6390   10.7540    6.6450 N   0  0  0  0  0  0  0  0  0  0  0  0
  -28.0410    6.4710    8.6250 O   0  0  0  0  0  0  0  0  0  0  0  0
  -33.3720    8.7240    7.6910 O   0  0  0  0  0  0  0  0  0  0  0  0
  1  2  1  0
  2  4  1  0
  4  3  1  0
  4  6  1  0
  5  4  1  0
  6  7  1  0
  7  8  1  0
  8  9  2  0
 10 13  1  0
 10  9  1  0
 11 10  2  0
 12 11  1  0
 12  7  2  0
 13 16  1  0
 14 13  1  0
 15 13  1  0
 17 18  1  0
 17 30  1  1
 17  1  1  0
 18 19  2  0
 19 20  1  0
 20 29  1  0
 21 20  2  0
 22 21  1  0
 23 22  2  0
 23 18  1  0
 24 23  1  0
 25 24  1  0
 26 25  1  0
 26 28  1  0
 27 26  2  0
 28 22  1  0
M  END
$$$$
