lig_382
     RDKit          3D

 37 41  0  0  1  0  0  0  0  0999 V2000
   -2.1100   10.7900   15.8000 N   0  0  0  0  0  0  0  0  0  0  0  0
   -3.3940   10.6070   15.3830 N   0  0  0  0  0  0  0  0  0  0  0  0
   -3.6360    9.3160   15.6470 C   0  0  0  0  0  0  0  0  0  0  0  0
   -2.5470    8.7020   16.2650 C   0  0  0  0  0  0  0  0  0  0  0  0
   -1.5780    9.6720   16.3840 C   0  0  0  0  0  0  0  0  0  0  0  0
   -0.3410    9.5550   16.9450 N   0  0  0  0  0  0  0  0  0  0  0  0
   -0.0690    8.3520   17.3990 C   0  0  0  0  0  0  0  0  0  0  0  0
    1.1480    8.1230   17.9670 N   0  0  0  0  0  0  0  0  0  0  0  0
   -0.9900    7.2990   17.3240 N   0  0  0  0  0  0  0  0  0  0  0  0
   -0.9380    5.9940   17.7760 C   0  0  0  0  0  0  0  0  0  0  0  0
   -0.0370    5.4620   18.4110 O   0  0  0  0  0  0  0  0  0  0  0  0
   -2.1640    5.4210   17.3920 N   0  0  0  0  0  0  0  0  0  0  0  0
   -2.9780    6.3630   16.7800 N   0  0  0  0  0  0  0  0  0  0  0  0
   -2.2280    7.4210   16.7720 C   0  0  0  0  0  0  0  0  0  0  0  0
   -1.4870   12.0910   15.6870 C   0  0  0  0  0  0  0  0  0  0  0  0
   -1.7380   13.0150   16.8890 C   0  0  0  0  0  0  0  0  0  0  0  0
    0.0180   17.1480   13.6420 C   0  0  0  0  0  0  0  0  0  0  0  0
   -0.7130   17.4680   12.7130 O   0  0  0  0  0  0  0  0  0  0  0  0
   -0.3340   16.2240   14.6020 N   0  0  0  0  0  0  0  0  0  0  0  0
    0.5500   15.8270   15.6980 C   0  0  0  0  0  0  0  0  0  0  0  0
    0.1580   14.4560   16.2790 C   0  0  0  0  0  0  0  0  0  0  0  0
   -1.2320   14.3950   16.7750 N   0  0  0  0  0  0  0  0  0  0  0  0
   -2.1480   15.2600   15.9990 C   0  0  0  0  0  0  0  0  0  0  0  0
   -1.6650   15.6280   14.5860 C   0  0  0  0  0  0  0  0  0  0  0  0
    1.2600   17.6530   13.8550 O   0  0  0  0  0  0  0  0  0  0  0  0
    3.6190   17.5990   13.7280 C   0  0  0  0  0  0  0  0  0  0  0  0
    2.3320   17.4330   12.9040 C   0  0  0  0  0  0  0  0  0  0  0  0
    2.3220   18.4920   11.7960 C   0  0  0  0  0  0  0  0  0  0  0  0
    2.2940   16.0090   12.3400 C   0  0  0  0  0  0  0  0  0  0  0  0
   -2.6320    4.1120   17.7800 C   0  0  0  0  0  0  0  0  0  0  0  0
   -4.0840    3.9070   17.4240 C   0  0  0  0  0  0  0  0  0  0  0  0
   -4.4640    2.8980   16.5270 C   0  0  0  0  0  0  0  0  0  0  0  0
   -5.8100    2.6950   16.2160 C   0  0  0  0  0  0  0  0  0  0  0  0
   -6.7900    3.4930   16.8040 C   0  0  0  0  0  0  0  0  0  0  0  0
   -6.4210    4.4890   17.7060 C   0  0  0  0  0  0  0  0  0  0  0  0
   -7.6310    5.4670   18.4410 Cl  0  0  0  0  0  0  0  0  0  0  0  0
   -5.0780    4.6970   18.0200 C   0  0  0  0  0  0  0  0  0  0  0  0
  1  5  1  0
  2  3  2  0
  2  1  1  0
  3  4  1  0
  4  5  1  0
  4 14  2  0
  5  6  2  0
  6  7  1  0
  7  8  1  0
  9  7  1  0
  9 10  1  0
 10 11  2  0
 12 10  1  0
 12 30  1  0
 13 12  1  0
 14 13  1  0
 14  9  1  0
 15  1  1  0
 15 16  1  0
 17 25  1  0
 17 19  1  0
 18 17  2  0
 19 20  1  0
 20 21  1  0
 21 22  1  0
 22 16  1  0
 23 22  1  0
 24 19  1  0
 24 23  1  0
 27 26  1  0
 27 25  1  0
 28 27  1  0
 29 27  1  0
 31 30  1  0
 31 37  1  0
 32 31  2  0
 33 32  1  0
 33 34  2  0
 34 35  1  0
 35 37  2  0
 35 36  1  0
M  END
$$$$
