lig_036
     RDKit          3D

 29 32  0  0  0  0  0  0  0  0999 V2000
   24.2860   14.0950    5.7940 C   0  0  0  0  0  0  0  0  0  0  0  0
   23.5450   14.9050    6.8240 C   0  0  0  0  0  0  0  0  0  0  0  0
   23.3710   14.3820    8.1140 C   0  0  0  0  0  0  0  0  0  0  0  0
   22.6870   15.1340    9.0600 C   0  0  0  0  0  0  0  0  0  0  0  0
   22.1700   16.3920    8.7570 C   0  0  0  0  0  0  0  0  0  0  0  0
   22.3290   16.9270    7.4900 C   0  0  0  0  0  0  0  0  0  0  0  0
   23.0190   16.1800    6.5260 C   0  0  0  0  0  0  0  0  0  0  0  0
   23.2030   16.8760    4.9530 Cl  0  0  0  0  0  0  0  0  0  0  0  0
   21.5290   16.9440    9.8890 N   0  0  0  0  0  0  0  0  0  0  0  0
   20.8590   18.1650    9.9170 C   0  0  0  0  0  0  0  0  0  0  0  0
   20.7090   18.8720    8.9250 O   0  0  0  0  0  0  0  0  0  0  0  0
   20.3700   18.5030   11.1680 N   0  0  0  0  0  0  0  0  0  0  0  0
   21.6860   15.9920   11.0060 C   0  0  0  0  0  0  0  0  0  0  0  0
   22.3820   14.7390   10.4670 C   0  0  0  0  0  0  0  0  0  0  0  0
   19.5770   19.6220   11.5130 C   0  0  0  0  0  0  0  0  0  0  0  0
   18.3670   19.3990   12.1660 C   0  0  0  0  0  0  0  0  0  0  0  0
   17.5040   20.3670   12.5490 N   0  0  0  0  0  0  0  0  0  0  0  0
   17.8570   21.6410   12.2680 C   0  0  0  0  0  0  0  0  0  0  0  0
   19.0400   21.9850   11.6150 C   0  0  0  0  0  0  0  0  0  0  0  0
   19.3890   23.4140   11.3280 C   0  0  0  0  0  0  0  0  0  0  0  0
   19.9030   20.9460   11.2330 C   0  0  0  0  0  0  0  0  0  0  0  0
   17.0220   22.6880   12.6500 O   0  0  0  0  0  0  0  0  0  0  0  0
   16.8350   22.8560   13.9990 C   0  0  0  0  0  0  0  0  0  0  0  0
   17.9380   23.1060   14.8130 C   0  0  0  0  0  0  0  0  0  0  0  0
   17.7530   23.2170   16.1860 C   0  0  0  0  0  0  0  0  0  0  0  0
   16.4710   23.0550   16.6890 C   0  0  0  0  0  0  0  0  0  0  0  0
   15.3870   22.7910   15.9270 N   0  0  0  0  0  0  0  0  0  0  0  0
   15.5800   22.6910   14.5850 C   0  0  0  0  0  0  0  0  0  0  0  0
   14.3700   22.3920   13.7500 C   0  0  0  0  0  0  0  0  0  0  0  0
  1  2  1  0
  2  3  1  0
  3  4  2  0
  4 14  1  0
  5  4  1  0
  5  9  1  0
  6  5  2  0
  7  2  2  0
  7  6  1  0
  8  7  1  0
  9 10  1  0
  9 13  1  0
 10 12  1  0
 11 10  2  0
 12 15  1  0
 14 13  2  0
 15 16  1  0
 16 17  2  0
 18 17  1  0
 18 22  1  0
 19 18  2  0
 20 19  1  0
 21 15  2  0
 21 19  1  0
 22 23  1  0
 23 28  1  0
 23 24  2  0
 24 25  1  0
 25 26  2  0
 27 26  1  0
 28 27  2  0
 29 28  1  0
M  END
$$$$
