lig_434
     RDKit          3D

 28 31  0  0  0  0  0  0  0  0999 V2000
   -0.0070  -20.3060   12.0440 N   0  0  0  0  0  0  0  0  0  0  0  0
    1.1150  -19.9370   12.9270 C   0  0  0  0  0  0  0  0  0  0  0  0
    0.9180  -18.5360   13.5320 C   0  0  0  0  0  0  0  0  0  0  0  0
    0.6430  -17.5140   12.5170 N   0  0  0  0  0  0  0  0  0  0  0  0
    1.0680  -16.2050   12.7710 C   0  0  0  0  0  0  0  0  0  0  0  0
    1.8690  -15.9610   13.6730 O   0  0  0  0  0  0  0  0  0  0  0  0
   -0.3390  -17.8950   11.4950 C   0  0  0  0  0  0  0  0  0  0  0  0
   -0.1140  -19.3220   10.9560 C   0  0  0  0  0  0  0  0  0  0  0  0
    0.5230  -15.1470   11.9380 C   0  0  0  0  0  0  0  0  0  0  0  0
   -0.4860  -14.2510   12.2220 C   0  0  0  0  0  0  0  0  0  0  0  0
   -0.7440  -13.3380   11.1460 C   0  0  0  0  0  0  0  0  0  0  0  0
   -1.6910  -12.2930   11.0320 C   0  0  0  0  0  0  0  0  0  0  0  0
   -1.7580  -11.5210    9.8670 C   0  0  0  0  0  0  0  0  0  0  0  0
   -0.8930  -11.7720    8.8110 C   0  0  0  0  0  0  0  0  0  0  0  0
    0.0550  -12.7940    8.8960 C   0  0  0  0  0  0  0  0  0  0  0  0
    0.1180  -13.5680   10.0700 C   0  0  0  0  0  0  0  0  0  0  0  0
    1.2030  -14.8650   10.4020 S   0  0  0  0  0  0  0  0  0  0  0  0
    0.0650  -21.7010   11.5720 C   0  0  0  0  0  0  0  0  0  0  0  0
   -1.0880  -22.6710   11.9110 C   0  0  0  0  0  0  0  0  0  0  0  0
   -1.8280  -22.2750   13.0670 O   0  0  0  0  0  0  0  0  0  0  0  0
   -2.1770  -25.1260   16.0960 C   0  0  0  0  0  0  0  0  0  0  0  0
   -0.9810  -24.9070   15.4160 C   0  0  0  0  0  0  0  0  0  0  0  0
   -0.9190  -23.9390   14.4060 C   0  0  0  0  0  0  0  0  0  0  0  0
   -2.0420  -23.1810   14.0650 C   0  0  0  0  0  0  0  0  0  0  0  0
   -3.2370  -23.4010   14.7460 C   0  0  0  0  0  0  0  0  0  0  0  0
   -3.2990  -24.3690   15.7560 C   0  0  0  0  0  0  0  0  0  0  0  0
   -2.8830  -25.5280   18.3300 C   0  0  0  0  0  0  0  0  0  0  0  0
   -2.3800  -26.0340   17.0980 O   0  0  0  0  0  0  0  0  0  0  0  0
  1  2  1  0
  2  3  1  0
  4  5  1  0
  4  3  1  0
  5  6  2  0
  7  4  1  0
  8  7  1  0
  8  1  1  0
  9 10  2  0
  9  5  1  0
 11 10  1  0
 12 11  2  0
 13 12  1  0
 14 15  1  0
 14 13  2  0
 15 16  2  0
 16 17  1  0
 16 11  1  0
 17  9  1  0
 18 19  1  0
 18  1  1  0
 19 20  1  0
 20 24  1  0
 21 28  1  0
 22 21  1  0
 23 22  2  0
 24 23  1  0
 24 25  2  0
 25 26  1  0
 26 21  2  0
 28 27  1  0
M  END
$$$$
