lig_237
     RDKit          3D

 34 38  0  0  1  0  0  0  0  0999 V2000
    0.4070  -18.8130   13.3980 C   0  0  0  0  0  0  0  0  0  0  0  0
    0.3050  -15.2900   10.9230 N   0  0  0  0  0  0  0  0  0  0  0  0
    1.3590  -15.3930   11.9440 C   0  0  0  0  0  0  0  0  0  0  0  0
    0.9570  -16.4480   13.0070 C   0  0  0  0  0  0  0  0  0  0  0  0
    0.6710  -17.7660   12.3980 N   0  0  0  0  0  0  0  0  0  0  0  0
   -0.4090  -17.6130   11.3970 C   0  0  0  0  0  0  0  0  0  0  0  0
   -0.0540  -16.5780   10.2990 C   0  0  0  0  0  0  0  0  0  0  0  0
   -0.2730  -12.9320   10.2730 C   0  0  0  0  0  0  0  0  0  0  0  0
   -0.1430  -11.9150    9.2960 C   0  0  0  0  0  0  0  0  0  0  0  0
    0.5810  -12.1710    8.1540 C   0  0  0  0  0  0  0  0  0  0  0  0
    1.1770  -13.3840    7.9440 C   0  0  0  0  0  0  0  0  0  0  0  0
    1.0760  -14.4000    8.8660 C   0  0  0  0  0  0  0  0  0  0  0  0
    0.3390  -14.1970   10.0540 C   0  0  0  0  0  0  0  0  0  0  0  0
    1.8460  -13.4380    6.7620 O   0  0  0  0  0  0  0  0  0  0  0  0
    1.6000  -12.1110    6.2530 C   0  0  0  0  0  0  0  0  0  0  0  0
    0.7950  -11.2990    7.1330 O   0  0  0  0  0  0  0  0  0  0  0  0
   -1.4590  -11.0980   11.5340 C   0  0  0  0  0  0  0  0  0  0  0  0
   -1.0710  -12.5710   11.5060 C   0  0  0  0  0  0  0  0  0  0  0  0
    1.4020  -19.9980   13.5170 C   0  0  1  0  0  0  0  0  0  0  0  0
    1.5560  -20.3960   14.8820 O   0  0  0  0  0  0  0  0  0  0  0  0
    0.8990  -21.2010   12.7080 C   0  0  0  0  0  0  0  0  0  0  0  0
    0.9610  -22.4990   13.5140 C   0  0  0  0  0  0  0  0  0  0  0  0
   -0.2600  -22.7220   14.2570 N   0  0  0  0  0  0  0  0  0  0  0  0
   -0.6080  -23.9540   14.7720 C   0  0  0  0  0  0  0  0  0  0  0  0
    0.1070  -24.9450   14.6490 O   0  0  0  0  0  0  0  0  0  0  0  0
   -1.8740  -23.9610   15.4710 C   0  0  0  0  0  0  0  0  0  0  0  0
   -2.8500  -22.9880   15.5880 C   0  0  0  0  0  0  0  0  0  0  0  0
   -3.8850  -23.5330   16.3900 C   0  0  0  0  0  0  0  0  0  0  0  0
   -5.1240  -23.0820   16.8760 C   0  0  0  0  0  0  0  0  0  0  0  0
   -5.8910  -23.9480   17.6690 C   0  0  0  0  0  0  0  0  0  0  0  0
   -5.4400  -25.2340   17.9760 C   0  0  0  0  0  0  0  0  0  0  0  0
   -4.2100  -25.7010   17.5020 C   0  0  0  0  0  0  0  0  0  0  0  0
   -3.4710  -24.8190   16.7160 C   0  0  0  0  0  0  0  0  0  0  0  0
   -2.2550  -25.0830   16.1630 O   0  0  0  0  0  0  0  0  0  0  0  0
  1 19  1  0
  2  3  1  0
  3  4  1  0
  5  4  1  0
  5  1  1  0
  6  5  1  0
  7  2  1  0
  7  6  1  0
  8 18  1  0
  9  8  2  0
 10  9  1  0
 11 10  2  0
 11 12  1  0
 12 13  2  0
 13  8  1  0
 13  2  1  0
 14 11  1  0
 15 14  1  0
 15 16  1  0
 16 10  1  0
 18 17  1  0
 19 21  1  0
 19 20  1  1
 21 22  1  0
 22 23  1  0
 23 24  1  0
 24 26  1  0
 25 24  2  0
 26 27  2  0
 26 34  1  0
 27 28  1  0
 28 33  1  0
 28 29  2  0
 29 30  1  0
 30 31  2  0
 32 31  1  0
 33 32  2  0
 34 33  1  0
M  END
$$$$
