lig_206
     RDKit          3D

 29 32  0  0  1  0  0  0  0  0999 V2000
    0.9430  -19.0940   13.3510 C   0  0  0  0  0  0  0  0  0  0  0  0
   -0.1660  -18.2410   12.9290 N   0  0  0  0  0  0  0  0  0  0  0  0
    0.0300  -17.6670   11.6030 C   0  0  0  0  0  0  0  0  0  0  0  0
    0.5450  -15.1150   11.3380 C   0  0  1  0  0  0  0  0  0  0  0  0
    0.0640  -15.3320   12.7560 C   0  0  0  0  0  0  0  0  0  0  0  0
   -0.4230  -16.2400   11.6620 C   0  0  2  0  0  0  0  0  0  0  0  0
    0.4180  -13.7250    9.1810 C   0  0  0  0  0  0  0  0  0  0  0  0
   -0.0560  -12.6080    8.4780 C   0  0  0  0  0  0  0  0  0  0  0  0
   -0.8910  -11.6810    9.1050 C   0  0  0  0  0  0  0  0  0  0  0  0
   -1.2580  -11.8700   10.4310 C   0  0  0  0  0  0  0  0  0  0  0  0
   -2.2970  -10.7360   11.2020 Cl  0  0  0  0  0  0  0  0  0  0  0  0
   -0.7920  -12.9760   11.1370 C   0  0  0  0  0  0  0  0  0  0  0  0
    0.0670  -13.9190   10.5380 C   0  0  0  0  0  0  0  0  0  0  0  0
    0.7670  -15.3500    7.4630 C   0  0  0  0  0  0  0  0  0  0  0  0
    1.2240  -14.6950    8.6370 O   0  0  0  0  0  0  0  0  0  0  0  0
    1.5120  -20.0360   12.2890 C   0  0  0  0  0  0  0  0  0  0  0  0
    0.5310  -21.1230   11.8550 C   0  0  0  0  0  0  0  0  0  0  0  0
   -0.5840  -21.1740   12.7470 O   0  0  0  0  0  0  0  0  0  0  0  0
   -0.7300  -22.2600   13.5640 C   0  0  0  0  0  0  0  0  0  0  0  0
    0.2120  -23.2700   13.7740 C   0  0  0  0  0  0  0  0  0  0  0  0
   -0.0670  -24.3290   14.6480 C   0  0  0  0  0  0  0  0  0  0  0  0
   -1.2880  -24.3810   15.3210 C   0  0  0  0  0  0  0  0  0  0  0  0
   -1.6130  -25.4720   16.2420 C   0  0  0  0  0  0  0  0  0  0  0  0
   -2.7950  -25.4860   16.8720 C   0  0  0  0  0  0  0  0  0  0  0  0
   -3.7970  -24.4130   16.6580 C   0  0  0  0  0  0  0  0  0  0  0  0
   -4.8760  -24.4360   17.2410 O   0  0  0  0  0  0  0  0  0  0  0  0
   -3.4540  -23.4120   15.7890 N   0  0  0  0  0  0  0  0  0  0  0  0
   -2.2270  -23.3640   15.1130 C   0  0  0  0  0  0  0  0  0  0  0  0
   -1.9520  -22.3100   14.2440 C   0  0  0  0  0  0  0  0  0  0  0  0
  2  1  1  0
  3  2  1  0
  4 13  1  6
  4  6  1  0
  4  5  1  0
  6  3  1  1
  6  5  1  0
  7 13  2  0
  8  9  2  0
  8  7  1  0
  9 10  1  0
 10 12  2  0
 10 11  1  0
 13 12  1  0
 14 15  1  0
 15  7  1  0
 16  1  1  0
 17 16  1  0
 17 18  1  0
 18 19  1  0
 19 20  1  0
 19 29  2  0
 20 21  2  0
 21 22  1  0
 22 23  1  0
 23 24  2  0
 25 24  1  0
 25 26  2  0
 27 25  1  0
 28 22  2  0
 28 27  1  0
 29 28  1  0
M  END
$$$$
