lig_173
     RDKit          3D

 28 31  0  0  1  0  0  0  0  0999 V2000
   -0.5740  -17.2530   11.6870 N   0  0  0  0  0  0  0  0  0  0  0  0
   -0.2940  -15.9260   12.2940 C   0  0  0  0  0  0  0  0  0  0  0  0
    0.9450  -15.2000   11.7230 C   0  0  0  0  0  0  0  0  0  0  0  0
    0.8510  -14.9930   10.2590 N   0  0  0  0  0  0  0  0  0  0  0  0
    0.3660  -13.7180    9.9080 C   0  0  0  0  0  0  0  0  0  0  0  0
   -0.3410  -12.9890   10.8050 N   0  0  0  0  0  0  0  0  0  0  0  0
   -0.8340  -11.7680   10.4520 C   0  0  0  0  0  0  0  0  0  0  0  0
   -1.6230  -11.0270   11.4890 C   0  0  0  0  0  0  0  0  0  0  0  0
   -0.6330  -11.2040    9.2010 C   0  0  0  0  0  0  0  0  0  0  0  0
    0.1110  -11.9470    8.3220 C   0  0  0  0  0  0  0  0  0  0  0  0
    0.6080  -13.1950    8.6530 C   0  0  0  0  0  0  0  0  0  0  0  0
    1.3240  -13.7510    7.4850 C   0  0  0  0  0  0  0  0  0  0  0  0
    1.4690  -12.4730    6.6610 C   0  0  0  0  0  0  0  0  0  0  0  0
    0.4320  -11.5430    7.0500 O   0  0  0  0  0  0  0  0  0  0  0  0
    0.0810  -16.0530    9.5610 C   0  0  0  0  0  0  0  0  0  0  0  0
    0.0840  -17.3730   10.3650 C   0  0  0  0  0  0  0  0  0  0  0  0
   -0.2010  -18.3770   12.5570 C   0  0  0  0  0  0  0  0  0  0  0  0
    0.4240  -19.5300   11.7560 C   0  0  0  0  0  0  0  0  0  0  0  0
   -0.5340  -22.7880   14.5520 C   0  0  1  0  0  0  0  0  0  0  0  0
    0.8240  -22.7870   13.8460 C   0  0  0  0  0  0  0  0  0  0  0  0
    1.1490  -21.4180   13.2540 C   0  0  0  0  0  0  0  0  0  0  0  0
    0.0500  -20.9260   12.2960 C   0  0  1  0  0  0  0  0  0  0  0  0
   -1.3170  -20.9420   12.9980 C   0  0  0  0  0  0  0  0  0  0  0  0
   -1.6380  -22.3090   13.6020 C   0  0  0  0  0  0  0  0  0  0  0  0
   -1.8860  -25.7400   16.5170 C   0  0  0  0  0  0  0  0  0  0  0  0
   -1.5790  -24.2990   16.2080 C   0  0  0  0  0  0  0  0  0  0  0  0
   -1.9800  -23.3820   16.9170 O   0  0  0  0  0  0  0  0  0  0  0  0
   -0.8330  -24.1180   15.0640 N   0  0  0  0  0  0  0  0  0  0  0  0
  1  2  1  0
  1 17  1  0
  3  2  1  0
  4  3  1  0
  5  4  1  0
  5  6  2  0
  7  6  1  0
  7  8  1  0
  9  7  2  0
 10 11  2  0
 10  9  1  0
 11  5  1  0
 12 11  1  0
 13 14  1  0
 13 12  1  0
 14 10  1  0
 15  4  1  0
 15 16  1  0
 16  1  1  0
 18 17  1  0
 19 28  1  6
 20 19  1  0
 21 20  1  0
 22 18  1  1
 22 23  1  0
 22 21  1  0
 23 24  1  0
 24 19  1  0
 26 25  1  0
 26 27  2  0
 28 26  1  0
M  END
$$$$
