lig_247
     RDKit          3D

 34 38  0  0  1  0  0  0  0  0999 V2000
    1.0960  -20.5350   12.2000 C   0  0  0  0  0  0  0  0  0  0  0  0
   -0.9840  -23.3750   14.5580 C   0  0  1  0  0  0  0  0  0  0  0  0
   -1.4900  -22.2480   13.6430 C   0  0  0  0  0  0  0  0  0  0  0  0
   -0.7500  -20.9390   13.8990 C   0  0  0  0  0  0  0  0  0  0  0  0
    0.7630  -21.0600   13.6150 C   0  0  1  0  0  0  0  0  0  0  0  0
    1.2780  -22.4980   13.8280 C   0  0  0  0  0  0  0  0  0  0  0  0
    0.5020  -23.2220   14.9220 C   0  0  0  0  0  0  0  0  0  0  0  0
   -1.9990  -24.6130   16.4690 C   0  0  0  0  0  0  0  0  0  0  0  0
   -1.5730  -25.7020   16.0870 O   0  0  0  0  0  0  0  0  0  0  0  0
   -1.7860  -23.4440   15.7720 N   0  0  0  0  0  0  0  0  0  0  0  0
   -2.7250  -24.4760   17.7910 C   0  0  0  0  0  0  0  0  0  0  0  0
   -5.2510  -20.3810   18.3210 C   0  0  0  0  0  0  0  0  0  0  0  0
   -4.9730  -21.7920   17.9620 C   0  0  0  0  0  0  0  0  0  0  0  0
   -5.8620  -22.7410   17.4060 C   0  0  0  0  0  0  0  0  0  0  0  0
   -5.1200  -23.8890   17.2670 C   0  0  0  0  0  0  0  0  0  0  0  0
   -3.8710  -23.5880   17.7250 N   0  0  0  0  0  0  0  0  0  0  0  0
   -3.7550  -22.3110   18.1560 N   0  0  0  0  0  0  0  0  0  0  0  0
    1.9600  -19.2610   12.2120 C   0  0  0  0  0  0  0  0  0  0  0  0
    1.3170  -18.1270   12.9010 N   0  0  0  0  0  0  0  0  0  0  0  0
    2.0940  -16.8830   12.7660 C   0  0  0  0  0  0  0  0  0  0  0  0
    1.2550  -15.6400   13.0560 C   0  0  0  0  0  0  0  0  0  0  0  0
    0.0880  -15.5050   12.0610 C   0  0  0  0  0  0  0  0  0  0  0  0
   -0.3250  -16.8690   11.4810 C   0  0  0  0  0  0  0  0  0  0  0  0
   -0.0900  -17.9820   12.4960 C   0  0  0  0  0  0  0  0  0  0  0  0
    0.3620  -14.5100   10.9700 C   0  0  0  0  0  0  0  0  0  0  0  0
    1.3550  -14.7140   10.0900 N   0  0  0  0  0  0  0  0  0  0  0  0
    1.3320  -13.6280    9.2320 O   0  0  0  0  0  0  0  0  0  0  0  0
    0.3330  -12.7820    9.5940 C   0  0  0  0  0  0  0  0  0  0  0  0
    0.0040  -11.5870    8.9650 C   0  0  0  0  0  0  0  0  0  0  0  0
   -1.0670  -10.8920    9.5210 C   0  0  0  0  0  0  0  0  0  0  0  0
   -1.4420   -9.7300    8.9670 F   0  0  0  0  0  0  0  0  0  0  0  0
   -1.7630  -11.3620   10.6340 C   0  0  0  0  0  0  0  0  0  0  0  0
   -1.4030  -12.5730   11.2430 C   0  0  0  0  0  0  0  0  0  0  0  0
   -0.3240  -13.2950   10.7000 C   0  0  0  0  0  0  0  0  0  0  0  0
  1 18  1  0
  2  7  1  0
  2 10  1  1
  3  4  1  0
  3  2  1  0
  5  1  1  6
  5  6  1  0
  5  4  1  0
  6  7  1  0
  8 11  1  0
  9  8  2  0
 10  8  1  0
 13 17  2  0
 13 12  1  0
 14 13  1  0
 15 14  2  0
 15 16  1  0
 16 11  1  0
 16 17  1  0
 18 19  1  0
 20 19  1  0
 20 21  1  0
 22 25  1  0
 22 21  1  0
 23 22  1  0
 23 24  1  0
 24 19  1  0
 26 25  2  0
 27 28  1  0
 27 26  1  0
 28 34  2  0
 29 30  2  0
 29 28  1  0
 30 32  1  0
 31 30  1  0
 32 33  2  0
 34 25  1  0
 34 33  1  0
M  END
$$$$
