lig_196
     RDKit          3D

 33 37  0  0  0  0  0  0  0  0999 V2000
    0.8870  -20.1700   11.9140 C   0  0  0  0  0  0  0  0  0  0  0  0
    0.4020  -21.6230   11.8660 C   0  0  0  0  0  0  0  0  0  0  0  0
    0.3070  -22.3200   13.2320 C   0  0  0  0  0  0  0  0  0  0  0  0
   -2.5990  -24.4480   15.3280 N   0  0  0  0  0  0  0  0  0  0  0  0
   -3.0410  -23.9830   13.9980 C   0  0  0  0  0  0  0  0  0  0  0  0
   -2.0510  -22.9490   13.4080 C   0  0  0  0  0  0  0  0  0  0  0  0
   -0.6530  -23.4310   13.2690 N   0  0  0  0  0  0  0  0  0  0  0  0
   -0.3270  -24.3940   14.3500 C   0  0  0  0  0  0  0  0  0  0  0  0
   -1.1760  -24.2580   15.6350 C   0  0  0  0  0  0  0  0  0  0  0  0
   -4.0770  -23.5240   17.0740 C   0  0  0  0  0  0  0  0  0  0  0  0
   -4.9850  -23.7070   18.1270 C   0  0  0  0  0  0  0  0  0  0  0  0
   -5.4400  -24.9820   18.4380 C   0  0  0  0  0  0  0  0  0  0  0  0
   -4.9830  -26.0670   17.7000 C   0  0  0  0  0  0  0  0  0  0  0  0
   -4.0550  -25.8790   16.6660 C   0  0  0  0  0  0  0  0  0  0  0  0
   -3.5490  -24.6090   16.3350 C   0  0  0  0  0  0  0  0  0  0  0  0
   -2.9620  -21.7000   17.8960 C   0  0  0  0  0  0  0  0  0  0  0  0
   -3.7240  -22.2200   16.8050 O   0  0  0  0  0  0  0  0  0  0  0  0
    0.5310  -19.4180   13.1960 C   0  0  0  0  0  0  0  0  0  0  0  0
    0.5210  -17.9830   12.9930 N   0  0  0  0  0  0  0  0  0  0  0  0
    0.1390  -17.2970   11.8770 C   0  0  0  0  0  0  0  0  0  0  0  0
    0.3220  -15.9760   12.2200 C   0  0  0  0  0  0  0  0  0  0  0  0
    0.8010  -15.9150   13.5070 N   0  0  0  0  0  0  0  0  0  0  0  0
    0.9210  -17.1530   13.9700 N   0  0  0  0  0  0  0  0  0  0  0  0
    0.0680  -14.8030   11.4000 C   0  0  0  0  0  0  0  0  0  0  0  0
    0.5320  -14.7720   10.0800 C   0  0  0  0  0  0  0  0  0  0  0  0
    0.3030  -13.6590    9.2640 C   0  0  0  0  0  0  0  0  0  0  0  0
   -0.3960  -12.5470    9.7510 C   0  0  0  0  0  0  0  0  0  0  0  0
   -0.6340  -11.4210    8.9460 C   0  0  0  0  0  0  0  0  0  0  0  0
   -1.3330  -10.3220    9.4470 C   0  0  0  0  0  0  0  0  0  0  0  0
   -1.8030  -10.3350   10.7560 C   0  0  0  0  0  0  0  0  0  0  0  0
   -1.5740  -11.4470   11.5690 C   0  0  0  0  0  0  0  0  0  0  0  0
   -0.8720  -12.5610   11.0810 C   0  0  0  0  0  0  0  0  0  0  0  0
   -0.6340  -13.6900   11.8880 C   0  0  0  0  0  0  0  0  0  0  0  0
  1 18  1  0
  2  1  1  0
  2  3  1  0
  3  7  1  0
  4  9  1  0
  4 15  1  0
  5  4  1  0
  6  5  1  0
  7  6  1  0
  7  8  1  0
  8  9  1  0
 10 11  2  0
 11 12  1  0
 13 12  2  0
 14 13  1  0
 15 14  2  0
 15 10  1  0
 17 10  1  0
 17 16  1  0
 19 18  1  0
 19 23  1  0
 20 21  2  0
 20 19  1  0
 21 22  1  0
 22 23  2  0
 24 33  2  0
 24 21  1  0
 25 24  1  0
 26 27  1  0
 26 25  2  0
 27 32  1  0
 28 29  1  0
 28 27  2  0
 29 30  2  0
 30 31  1  0
 32 31  2  0
 32 33  1  0
M  END
$$$$
