lig_062
     RDKit          3D

 29 31  0  0  1  0  0  0  0  0999 V2000
  -25.2210    4.8010    8.1320 N   0  0  0  0  0  0  0  0  0  0  0  0
  -25.8760    5.9610    7.6990 C   0  0  0  0  0  0  0  0  0  0  0  0
  -25.2750    6.9600    6.9290 C   0  0  0  0  0  0  0  0  0  0  0  0
  -25.9640    8.1360    6.5880 C   0  0  0  0  0  0  0  0  0  0  0  0
  -27.2720    8.3580    7.0350 C   0  0  0  0  0  0  0  0  0  0  0  0
  -27.8660    7.3740    7.8340 C   0  0  0  0  0  0  0  0  0  0  0  0
  -27.1730    6.2050    8.1710 C   0  0  0  0  0  0  0  0  0  0  0  0
  -28.0260    9.5670    6.7040 C   0  0  0  0  0  0  0  0  0  0  0  0
  -27.5190   10.6520    6.0150 C   0  0  0  0  0  0  0  0  0  0  0  0
  -28.7240   11.8610    5.8360 S   0  0  0  0  0  0  0  0  0  0  0  0
  -29.8310   10.8680    6.6910 C   0  0  0  0  0  0  0  0  0  0  0  0
  -29.3530    9.7060    7.0930 N   0  0  0  0  0  0  0  0  0  0  0  0
  -31.1870   11.3290    6.9300 C   0  0  0  0  0  0  0  0  0  0  0  0
  -31.8440   11.2650    7.9610 O   0  0  0  0  0  0  0  0  0  0  0  0
  -31.7430   11.8940    5.8280 O   0  0  0  0  0  0  0  0  0  0  0  0
  -25.7730    4.0350    9.2560 C   0  0  0  0  0  0  0  0  0  0  0  0
  -25.2730    3.8270   11.7400 C   0  0  0  0  0  0  0  0  0  0  0  0
  -24.6810    3.7420   10.3250 C   0  0  1  0  0  0  0  0  0  0  0  0
  -24.0740    2.4000   10.2050 N   0  0  0  0  0  0  0  0  0  0  0  0
  -24.7460    1.3410   10.9780 C   0  0  0  0  0  0  0  0  0  0  0  0
  -25.7140    0.3960   10.2190 C   0  0  1  0  0  0  0  0  0  0  0  0
  -27.1630    0.5260   10.6480 C   0  0  0  0  0  0  0  0  0  0  0  0
  -27.5070    1.3310   11.7450 C   0  0  0  0  0  0  0  0  0  0  0  0
  -28.8400    1.4590   12.1430 C   0  0  0  0  0  0  0  0  0  0  0  0
  -29.8430    0.7820   11.4520 C   0  0  0  0  0  0  0  0  0  0  0  0
  -29.5110   -0.0230   10.3670 C   0  0  0  0  0  0  0  0  0  0  0  0
  -30.7490   -0.8630    9.5160 Cl  0  0  0  0  0  0  0  0  0  0  0  0
  -28.1820   -0.1550    9.9640 C   0  0  0  0  0  0  0  0  0  0  0  0
  -25.6210    0.6680    8.8170 O   0  0  0  0  0  0  0  0  0  0  0  0
  1 16  1  0
  2  1  1  0
  2  7  2  0
  3  2  1  0
  4  3  2  0
  4  5  1  0
  5  6  2  0
  6  7  1  0
  8  5  1  0
  8 12  1  0
  9  8  2  0
 10  9  1  0
 10 11  1  0
 11 13  1  0
 11 12  2  0
 13 14  2  0
 15 13  1  0
 16 18  1  0
 18 17  1  1
 19 18  1  0
 19 20  1  0
 21 22  1  0
 21 20  1  0
 22 23  2  0
 23 24  1  0
 25 24  2  0
 26 25  1  0
 27 26  1  0
 28 26  2  0
 28 22  1  0
 21 29  1  6
M  END
$$$$
