lig_102
     RDKit          3D

 29 32  0  0  1  0  0  0  0  0999 V2000
    0.4100  -15.7310   11.6950 C   0  0  1  0  0  0  0  0  0  0  0  0
    1.9160  -15.5490   11.9430 C   0  0  0  0  0  0  0  0  0  0  0  0
    2.4830  -16.6730   12.8020 C   0  0  0  0  0  0  0  0  0  0  0  0
    1.8540  -16.6830   14.2090 C   0  0  1  0  0  0  0  0  0  0  0  0
    0.3640  -16.2770   14.1770 C   0  0  0  0  0  0  0  0  0  0  0  0
   -0.2810  -16.5260   12.8150 C   0  0  0  0  0  0  0  0  0  0  0  0
    0.4880  -14.1800    9.3740 O   0  0  0  0  0  0  0  0  0  0  0  0
   -0.0990  -13.7090   10.3450 C   0  0  0  0  0  0  0  0  0  0  0  0
   -0.2340  -14.4330   11.5210 N   0  0  0  0  0  0  0  0  0  0  0  0
   -0.6860  -12.3730   10.3820 C   0  0  0  0  0  0  0  0  0  0  0  0
   -1.3090  -11.6970   11.4180 C   0  0  0  0  0  0  0  0  0  0  0  0
   -1.7450  -10.3920   11.0400 C   0  0  0  0  0  0  0  0  0  0  0  0
   -1.4490  -10.1120    9.7270 C   0  0  0  0  0  0  0  0  0  0  0  0
   -0.6580  -11.4150    8.9560 S   0  0  0  0  0  0  0  0  0  0  0  0
    2.0890  -18.0600   14.8680 C   0  0  0  0  0  0  0  0  0  0  0  0
    1.4460  -19.2180   14.0840 C   0  0  0  0  0  0  0  0  0  0  0  0
    1.4150  -20.4580   14.8730 N   0  0  0  0  0  0  0  0  0  0  0  0
    1.0140  -21.6030   14.0270 C   0  0  0  0  0  0  0  0  0  0  0  0
    0.5050  -22.8270   14.8220 C   0  0  0  0  0  0  0  0  0  0  0  0
   -0.6920  -22.4760   15.6030 N   0  0  0  0  0  0  0  0  0  0  0  0
   -0.8240  -21.0620   15.9900 C   0  0  0  0  0  0  0  0  0  0  0  0
    0.5580  -20.3680   16.0780 C   0  0  0  0  0  0  0  0  0  0  0  0
   -1.6300  -23.4250   15.9700 C   0  0  0  0  0  0  0  0  0  0  0  0
   -1.3250  -24.7970   16.0000 C   0  0  0  0  0  0  0  0  0  0  0  0
   -2.2670  -25.7660   16.3720 C   0  0  0  0  0  0  0  0  0  0  0  0
   -3.5540  -25.3810   16.7260 C   0  0  0  0  0  0  0  0  0  0  0  0
   -3.8860  -24.0320   16.7050 C   0  0  0  0  0  0  0  0  0  0  0  0
   -5.4790  -23.5420   17.1370 Cl  0  0  0  0  0  0  0  0  0  0  0  0
   -2.9410  -23.0710   16.3340 C   0  0  0  0  0  0  0  0  0  0  0  0
  1  9  1  1
  1  2  1  0
  1  6  1  0
  2  3  1  0
  3  4  1  0
  4 15  1  6
  5  4  1  0
  6  5  1  0
  7  8  2  0
  8 10  1  0
  8  9  1  0
 10 11  2  0
 12 11  1  0
 13 12  2  0
 14 13  1  0
 14 10  1  0
 16 15  1  0
 16 17  1  0
 17 22  1  0
 18 19  1  0
 18 17  1  0
 19 20  1  0
 20 23  1  0
 20 21  1  0
 21 22  1  0
 23 24  2  0
 23 29  1  0
 24 25  1  0
 25 26  2  0
 27 26  1  0
 27 28  1  0
 29 27  2  0
M  END
$$$$
