lig_097
     RDKit          3D

 22 24  0  0  0  0  0  0  0  0999 V2000
  -28.7120   11.0950    6.1870 C   0  0  0  0  0  0  0  0  0  0  0  0
  -27.7200   10.1580    6.3810 C   0  0  0  0  0  0  0  0  0  0  0  0
  -28.1110    8.9660    6.9560 C   0  0  0  0  0  0  0  0  0  0  0  0
  -29.3950    8.7500    7.3160 N   0  0  0  0  0  0  0  0  0  0  0  0
  -30.2860    9.7230    7.0780 C   0  0  0  0  0  0  0  0  0  0  0  0
  -30.0000   10.9080    6.5230 N   0  0  0  0  0  0  0  0  0  0  0  0
  -27.1710    7.8590    7.2330 C   0  0  0  0  0  0  0  0  0  0  0  0
  -25.8720    7.8240    6.6930 C   0  0  0  0  0  0  0  0  0  0  0  0
  -24.9950    6.7690    6.9720 C   0  0  0  0  0  0  0  0  0  0  0  0
  -25.3990    5.7230    7.7960 C   0  0  0  0  0  0  0  0  0  0  0  0
  -26.6820    5.7260    8.3350 C   0  0  0  0  0  0  0  0  0  0  0  0
  -27.5560    6.7810    8.0530 C   0  0  0  0  0  0  0  0  0  0  0  0
  -28.1540   13.3760    5.0750 N   0  0  0  0  0  0  0  0  0  0  0  0
  -28.4010   12.3670    5.5970 C   0  0  0  0  0  0  0  0  0  0  0  0
  -31.5830    9.4350    7.4850 O   0  0  0  0  0  0  0  0  0  0  0  0
  -32.1860    8.3600    6.8840 C   0  0  0  0  0  0  0  0  0  0  0  0
  -32.6970    7.3380    7.6860 C   0  0  0  0  0  0  0  0  0  0  0  0
  -33.2730    6.2160    7.0880 C   0  0  0  0  0  0  0  0  0  0  0  0
  -33.3170    6.1190    5.6970 C   0  0  0  0  0  0  0  0  0  0  0  0
  -34.0240    4.7330    4.9610 Cl  0  0  0  0  0  0  0  0  0  0  0  0
  -32.7840    7.1300    4.8970 C   0  0  0  0  0  0  0  0  0  0  0  0
  -32.2080    8.2540    5.4930 C   0  0  0  0  0  0  0  0  0  0  0  0
  1  2  2  0
  1  6  1  0
  2  3  1  0
  3  7  1  0
  3  4  2  0
  5  4  1  0
  5 15  1  0
  6  5  2  0
  7 12  1  0
  8  9  1  0
  8  7  2  0
  9 10  2  0
 10 11  1  0
 12 11  2  0
 13 14  3  0
 14  1  1  0
 16 15  1  0
 16 17  1  0
 18 17  2  0
 19 18  1  0
 20 19  1  0
 21 22  1  0
 21 19  2  0
 22 16  2  0
M  END
$$$$
