lig_465
     RDKit          3D

 28 30  0  0  1  0  0  0  0  0999 V2000
   -1.3730   10.3970   16.2200 C   0  0  0  0  0  0  0  0  0  0  0  0
   -2.7200   10.4050   16.1310 N   0  0  0  0  0  0  0  0  0  0  0  0
   -3.3160   11.5230   15.6610 C   0  0  0  0  0  0  0  0  0  0  0  0
   -2.5090   12.6020   15.2620 C   0  0  0  0  0  0  0  0  0  0  0  0
   -2.8000   13.8350   14.7220 N   0  0  0  0  0  0  0  0  0  0  0  0
   -1.6290   14.4200   14.5660 C   0  0  0  0  0  0  0  0  0  0  0  0
   -0.5940   13.6110   14.9500 N   0  0  0  0  0  0  0  0  0  0  0  0
   -1.1410   12.4420   15.4060 C   0  0  0  0  0  0  0  0  0  0  0  0
   -0.4950   11.3640   15.8790 N   0  0  0  0  0  0  0  0  0  0  0  0
    0.8280   13.9080   14.9270 C   0  0  2  0  0  0  0  0  0  0  0  0
    1.1810   14.6330   16.1380 O   0  0  0  0  0  0  0  0  0  0  0  0
    1.8140   15.8640   15.7350 C   0  0  1  0  0  0  0  0  0  0  0  0
    1.2670   16.1720   14.3450 C   0  0  2  0  0  0  0  0  0  0  0  0
    1.2570   14.7780   13.7360 C   0  0  1  0  0  0  0  0  0  0  0  0
    2.0930   17.0540   13.5930 O   0  0  0  0  0  0  0  0  0  0  0  0
    2.5910   14.4440   13.3100 O   0  0  0  0  0  0  0  0  0  0  0  0
    1.6550   16.9540   16.8020 C   0  0  0  0  0  0  0  0  0  0  0  0
    0.9260   16.3560   18.3720 S   0  0  0  0  0  0  0  0  0  0  0  0
   -0.8450   16.7880   18.1480 C   0  0  0  0  0  0  0  0  0  0  0  0
   -1.7410   15.5560   18.0780 C   0  0  0  0  0  0  0  0  0  0  0  0
   -1.0460   17.7030   16.9430 C   0  0  0  0  0  0  0  0  0  0  0  0
   -4.7030   11.5420   15.5750 N   0  0  0  0  0  0  0  0  0  0  0  0
   -0.3120    8.1770   17.1500 C   0  0  0  0  0  0  0  0  0  0  0  0
   -0.7950    9.1930   16.7260 C   0  0  0  0  0  0  0  0  0  0  0  0
    0.2790    6.9390   17.6730 C   0  0  0  0  0  0  0  0  0  0  0  0
   -0.7770    5.8750   17.9800 C   0  0  0  0  0  0  0  0  0  0  0  0
   -3.1420    5.8380   17.0110 C   0  0  0  0  0  0  0  0  0  0  0  0
   -1.6770    5.4880   16.8000 C   0  0  0  0  0  0  0  0  0  0  0  0
  1 24  1  0
  2  1  2  0
  3  2  1  0
  4  8  1  0
  4  3  2  0
  5  4  1  0
  6  5  2  0
  6  7  1  0
  7  8  1  0
  8  9  2  0
  9  1  1  0
 10  7  1  6
 10 11  1  0
 12 11  1  0
 12 17  1  1
 13 15  1  6
 13 12  1  0
 14 16  1  1
 14 13  1  0
 14 10  1  0
 17 18  1  0
 19 18  1  0
 20 19  1  0
 21 19  1  0
 22  3  1  0
 23 25  1  0
 24 23  3  0
 25 26  1  0
 28 27  1  0
 28 26  1  0
M  END
$$$$
