lig_122
     RDKit          3D

 29 31  0  0  0  0  0  0  0  0999 V2000
   -0.0260  -18.7350   11.6260 C   0  0  0  0  0  0  0  0  0  0  0  0
    0.4070  -19.9720   11.9300 C   0  0  0  0  0  0  0  0  0  0  0  0
    0.4330  -17.4230   12.1930 C   0  0  0  0  0  0  0  0  0  0  0  0
    0.0870  -15.0790   11.5210 C   0  0  0  0  0  0  0  0  0  0  0  0
   -0.2790  -14.7220   12.6350 O   0  0  0  0  0  0  0  0  0  0  0  0
    0.4140  -16.3780   11.1990 N   0  0  0  0  0  0  0  0  0  0  0  0
   -0.2740  -11.9260    9.4170 C   0  0  0  0  0  0  0  0  0  0  0  0
    0.5660  -12.2390    8.3470 C   0  0  0  0  0  0  0  0  0  0  0  0
    1.2480  -13.4590    8.3230 C   0  0  0  0  0  0  0  0  0  0  0  0
    1.0870  -14.3720    9.3640 C   0  0  0  0  0  0  0  0  0  0  0  0
    0.2340  -14.0740   10.4320 C   0  0  0  0  0  0  0  0  0  0  0  0
   -0.4350  -12.8440   10.4590 C   0  0  0  0  0  0  0  0  0  0  0  0
   -0.9310  -10.1360   10.8400 C   0  0  0  0  0  0  0  0  0  0  0  0
   -0.9870  -10.7670    9.5660 O   0  0  0  0  0  0  0  0  0  0  0  0
   -0.1460  -21.2330   11.3300 C   0  0  0  0  0  0  0  0  0  0  0  0
   -0.0920  -22.3520   12.2770 N   0  0  0  0  0  0  0  0  0  0  0  0
   -1.4330  -22.9360   12.5080 C   0  0  0  0  0  0  0  0  0  0  0  0
   -2.1620  -22.4470   13.7790 C   0  0  0  0  0  0  0  0  0  0  0  0
   -1.3560  -22.6480   15.0000 N   0  0  0  0  0  0  0  0  0  0  0  0
    0.1010  -22.7940   14.7680 C   0  0  0  0  0  0  0  0  0  0  0  0
    0.5390  -21.9390   13.5590 C   0  0  0  0  0  0  0  0  0  0  0  0
   -1.8380  -23.5560   15.9630 C   0  0  0  0  0  0  0  0  0  0  0  0
   -1.6980  -24.9440   15.7800 C   0  0  0  0  0  0  0  0  0  0  0  0
   -2.1500  -25.8530   16.7380 C   0  0  0  0  0  0  0  0  0  0  0  0
   -2.7480  -25.3910   17.9050 C   0  0  0  0  0  0  0  0  0  0  0  0
   -2.8960  -24.0180   18.1210 C   0  0  0  0  0  0  0  0  0  0  0  0
   -3.6510  -23.5310   19.6000 Cl  0  0  0  0  0  0  0  0  0  0  0  0
   -2.4440  -23.0990   17.1610 C   0  0  0  0  0  0  0  0  0  0  0  0
   -2.6500  -21.3900   17.4200 Cl  0  0  0  0  0  0  0  0  0  0  0  0
  1  2  2  0
  1  3  1  0
  4  5  2  0
  6  4  1  0
  6  3  1  0
  7 14  1  0
  7 12  2  0
  8  7  1  0
  9  8  2  0
  9 10  1  0
 10 11  2  0
 11 12  1  0
 11  4  1  0
 14 13  1  0
 15  2  1  0
 15 16  1  0
 16 17  1  0
 16 21  1  0
 17 18  1  0
 18 19  1  0
 19 22  1  0
 20 19  1  0
 21 20  1  0
 22 28  1  0
 23 22  2  0
 23 24  1  0
 24 25  2  0
 25 26  1  0
 26 27  1  0
 28 29  1  0
 28 26  2  0
M  END
$$$$
