lig_197
     RDKit          3D

 29 32  0  0  1  0  0  0  0  0999 V2000
    0.5250  -16.5410   11.5040 N   0  0  0  0  0  0  0  0  0  0  0  0
    0.4150  -15.1610   10.9600 C   0  0  1  0  0  0  0  0  0  0  0  0
    0.1580  -15.2030    9.4430 C   0  0  0  0  0  0  0  0  0  0  0  0
    0.3280  -13.8090    8.8360 C   0  0  0  0  0  0  0  0  0  0  0  0
   -0.3910  -12.7270    9.6000 C   0  0  0  0  0  0  0  0  0  0  0  0
   -0.5940  -11.4800    8.9850 C   0  0  0  0  0  0  0  0  0  0  0  0
   -1.2260  -10.4530    9.6810 C   0  0  0  0  0  0  0  0  0  0  0  0
   -1.6580  -10.6410   10.9850 C   0  0  0  0  0  0  0  0  0  0  0  0
   -1.4540  -11.8710   11.6090 C   0  0  0  0  0  0  0  0  0  0  0  0
   -0.8080  -12.9180   10.9300 C   0  0  0  0  0  0  0  0  0  0  0  0
   -0.6370  -14.2470   11.6330 C   0  0  0  0  0  0  0  0  0  0  0  0
   -1.4420   -9.2350    9.1080 O   0  0  0  0  0  0  0  0  0  0  0  0
   -0.6230  -17.4030   11.1670 C   0  0  0  0  0  0  0  0  0  0  0  0
   -0.9360  -18.5970    8.9680 C   0  0  0  0  0  0  0  0  0  0  0  0
   -0.1940  -18.5920   10.2960 C   0  0  0  0  0  0  0  0  0  0  0  0
    0.7840  -16.5410   12.9650 C   0  0  0  0  0  0  0  0  0  0  0  0
    2.1280  -17.2170   13.3370 C   0  0  0  0  0  0  0  0  0  0  0  0
    1.9660  -18.5160   14.0280 N   0  0  0  0  0  0  0  0  0  0  0  0
    1.7310  -19.5880   13.0280 C   0  0  0  0  0  0  0  0  0  0  0  0
    1.4960  -20.9800   13.6600 C   0  0  0  0  0  0  0  0  0  0  0  0
    0.3790  -20.9270   14.6310 N   0  0  0  0  0  0  0  0  0  0  0  0
    0.5840  -19.8750   15.6460 C   0  0  0  0  0  0  0  0  0  0  0  0
    0.8220  -18.5030   14.9710 C   0  0  0  0  0  0  0  0  0  0  0  0
   -0.0470  -22.1930   15.0680 C   0  0  0  0  0  0  0  0  0  0  0  0
   -0.6650  -22.4210   16.3070 C   0  0  0  0  0  0  0  0  0  0  0  0
   -1.0800  -23.7020   16.6930 C   0  0  0  0  0  0  0  0  0  0  0  0
   -0.8930  -24.7850   15.8420 C   0  0  0  0  0  0  0  0  0  0  0  0
   -0.2980  -24.5870   14.6020 C   0  0  0  0  0  0  0  0  0  0  0  0
    0.1160  -23.3050   14.2230 C   0  0  0  0  0  0  0  0  0  0  0  0
  1 16  1  0
  2  1  1  1
  2 11  1  0
  3  2  1  0
  4  3  1  0
  4  5  1  0
  5 10  2  0
  6  5  1  0
  6  7  2  0
  7  8  1  0
  8  9  2  0
 10  9  1  0
 10 11  1  0
 12  7  1  0
 13  1  1  0
 14 15  1  0
 15 13  1  0
 16 17  1  0
 17 18  1  0
 18 23  1  0
 19 20  1  0
 19 18  1  0
 20 21  1  0
 21 24  1  0
 21 22  1  0
 23 22  1  0
 24 25  2  0
 25 26  1  0
 27 26  2  0
 28 27  1  0
 29 28  2  0
 29 24  1  0
M  END
$$$$
