lig_239
     RDKit          3D

 26 29  0  0  1  0  0  0  0  0999 V2000
   -0.8110   10.6220   15.5720 N   0  0  0  0  0  0  0  0  0  0  0  0
   -1.0880   11.9150   15.2130 C   0  0  0  0  0  0  0  0  0  0  0  0
   -0.0090   12.6780   15.0440 N   0  0  0  0  0  0  0  0  0  0  0  0
   -0.1540   13.9750   14.6680 C   0  0  0  0  0  0  0  0  0  0  0  0
   -1.4290   14.4890   14.4770 C   0  0  0  0  0  0  0  0  0  0  0  0
   -1.9920   16.0410   13.9920 S   0  0  0  0  0  0  0  0  0  0  0  0
   -3.6280   15.5660   14.0780 C   0  0  0  0  0  0  0  0  0  0  0  0
   -3.7580   14.2500   14.4550 C   0  0  0  0  0  0  0  0  0  0  0  0
   -2.4970   13.6230   14.6820 C   0  0  0  0  0  0  0  0  0  0  0  0
   -2.3370   12.3340   15.0540 N   0  0  0  0  0  0  0  0  0  0  0  0
    1.0780   14.7990   14.5220 C   0  0  0  0  0  0  0  0  0  0  0  0
    1.7360   14.7250   13.4850 O   0  0  0  0  0  0  0  0  0  0  0  0
    1.4630   15.6360   15.5570 N   0  0  0  0  0  0  0  0  0  0  0  0
    0.8660   15.7700   16.8790 C   0  0  0  0  0  0  0  0  0  0  0  0
    1.9370   16.4720   17.7050 C   0  0  0  0  0  0  0  0  0  0  0  0
    2.6100   17.3690   16.6800 C   0  0  2  0  0  0  0  0  0  0  0  0
    1.8310   18.4690   16.4900 F   0  0  0  0  0  0  0  0  0  0  0  0
    2.6100   16.5220   15.4140 C   0  0  0  0  0  0  0  0  0  0  0  0
   -3.0340    9.4940   15.4660 C   0  0  0  0  0  0  0  0  0  0  0  0
   -1.7550    9.7500   16.2650 C   0  0  1  0  0  0  0  0  0  0  0  0
   -1.0930    8.5150   16.8660 C   0  0  0  0  0  0  0  0  0  0  0  0
   -1.7160    7.2680   16.8880 C   0  0  0  0  0  0  0  0  0  0  0  0
   -1.0540    6.1820   17.4570 C   0  0  0  0  0  0  0  0  0  0  0  0
    0.2140    6.3600   17.9920 C   0  0  0  0  0  0  0  0  0  0  0  0
    0.7700    7.6240   17.9360 C   0  0  0  0  0  0  0  0  0  0  0  0
    0.1510    8.6960   17.3960 N   0  0  0  0  0  0  0  0  0  0  0  0
  1 20  1  0
  2  1  1  0
  3  2  2  0
  4  3  1  0
  5  4  2  0
  5  9  1  0
  6  7  1  0
  6  5  1  0
  7  8  2  0
  8  9  1  0
  9 10  2  0
 10  2  1  0
 11  4  1  0
 11 13  1  0
 12 11  2  0
 13 14  1  0
 14 15  1  0
 16 17  1  6
 16 15  1  0
 18 13  1  0
 18 16  1  0
 20 19  1  6
 20 21  1  0
 21 22  2  0
 21 26  1  0
 22 23  1  0
 23 24  2  0
 25 24  1  0
 26 25  2  0
M  END
$$$$
