lig_160
     RDKit          3D

 32 37  0  0  1  0  0  0  0  0999 V2000
   -5.2970    3.3350   16.2120 N   0  0  0  0  0  0  0  0  0  0  0  0
   -4.1790    4.0080   16.6350 C   0  0  0  0  0  0  0  0  0  0  0  0
   -3.1910    3.3820   17.2190 N   0  0  0  0  0  0  0  0  0  0  0  0
   -2.0520    4.1200   17.6480 C   0  0  0  0  0  0  0  0  0  0  0  0
   -0.9970    3.4890   18.2820 C   0  0  0  0  0  0  0  0  0  0  0  0
    0.1160    4.1870   18.7080 C   0  0  0  0  0  0  0  0  0  0  0  0
    0.2450    5.5500   18.5290 C   0  0  0  0  0  0  0  0  0  0  0  0
   -0.7980    6.2260   17.8920 C   0  0  0  0  0  0  0  0  0  0  0  0
   -1.9340    5.5190   17.4570 C   0  0  0  0  0  0  0  0  0  0  0  0
   -3.0400    6.1670   16.7870 C   0  0  0  0  0  0  0  0  0  0  0  0
   -3.2550    7.4130   16.4280 N   0  0  0  0  0  0  0  0  0  0  0  0
   -4.4870    7.3460   15.8150 C   0  0  0  0  0  0  0  0  0  0  0  0
   -5.0410    6.1230   15.7650 N   0  0  0  0  0  0  0  0  0  0  0  0
   -4.1020    5.3950   16.4140 N   0  0  0  0  0  0  0  0  0  0  0  0
    1.0370    3.3850   19.3070 O   0  0  0  0  0  0  0  0  0  0  0  0
    0.3730    2.1180   19.2040 C   0  0  0  0  0  0  0  0  0  0  0  0
    0.2180    1.6120   20.4510 F   0  0  0  0  0  0  0  0  0  0  0  0
    1.1750    1.2690   18.5150 F   0  0  0  0  0  0  0  0  0  0  0  0
   -0.9050    2.1580   18.5640 O   0  0  0  0  0  0  0  0  0  0  0  0
   -5.1440    8.5490   15.2370 C   0  0  0  0  0  0  0  0  0  0  0  0
   -4.8460    9.8060   16.0710 C   0  0  0  0  0  0  0  0  0  0  0  0
   -4.1440   10.9160   15.4200 N   0  0  0  0  0  0  0  0  0  0  0  0
   -2.6920   10.7840   15.3490 C   0  0  0  0  0  0  0  0  0  0  0  0
   -2.2630   12.1440   14.8130 C   0  0  0  0  0  0  0  0  0  0  0  0
   -3.3490   13.1230   15.2960 C   0  0  1  0  0  0  0  0  0  0  0  0
   -4.3900   12.2360   15.9990 C   0  0  0  0  0  0  0  0  0  0  0  0
   -2.8410   14.2490   16.1720 C   0  0  0  0  0  0  0  0  0  0  0  0
   -2.4230   14.0270   17.4930 C   0  0  0  0  0  0  0  0  0  0  0  0
   -1.9700   15.0850   18.2850 C   0  0  0  0  0  0  0  0  0  0  0  0
   -1.9320   16.3770   17.7690 C   0  0  0  0  0  0  0  0  0  0  0  0
   -2.3480   16.6140   16.4610 C   0  0  0  0  0  0  0  0  0  0  0  0
   -2.8010   15.5580   15.6680 C   0  0  0  0  0  0  0  0  0  0  0  0
  1  2  1  0
  2  3  2  0
  3  4  1  0
  4  5  1  0
  5 19  1  0
  5  6  2  0
  6 15  1  0
  7  6  1  0
  8  7  2  0
  9  4  2  0
  9  8  1  0
 10  9  1  0
 11 10  2  0
 12 11  1  0
 13 12  2  0
 13 14  1  0
 14  2  1  0
 14 10  1  0
 16 15  1  0
 16 17  1  0
 18 16  1  0
 19 16  1  0
 20 12  1  0
 20 21  1  0
 22 26  1  0
 22 21  1  0
 23 22  1  0
 24 25  1  0
 24 23  1  0
 25 26  1  0
 25 27  1  1
 27 28  2  0
 28 29  1  0
 30 29  2  0
 31 30  1  0
 32 27  1  0
 32 31  2  0
M  END
$$$$
