lig_326
     RDKit          3D

 21 22  0  0  0  0  0  0  0  0999 V2000
    0.9680  -16.0370   14.0850 N   0  0  0  0  0  0  0  0  0  0  0  0
   -0.1820  -15.3460   13.4840 C   0  0  0  0  0  0  0  0  0  0  0  0
   -0.0010  -15.1090   11.9750 C   0  0  0  0  0  0  0  0  0  0  0  0
   -0.6310  -13.8810   11.6040 O   0  0  0  0  0  0  0  0  0  0  0  0
    1.2830  -11.8480    6.6620 C   0  0  0  0  0  0  0  0  0  0  0  0
    0.7350  -12.3720    7.9560 C   0  0  0  0  0  0  0  0  0  0  0  0
   -0.2460  -11.6580    8.6540 C   0  0  0  0  0  0  0  0  0  0  0  0
   -0.7370  -12.1280    9.8780 C   0  0  0  0  0  0  0  0  0  0  0  0
   -0.2450  -13.3140   10.4220 C   0  0  0  0  0  0  0  0  0  0  0  0
    0.7450  -14.0180    9.7340 C   0  0  0  0  0  0  0  0  0  0  0  0
    1.2370  -13.5520    8.5130 C   0  0  0  0  0  0  0  0  0  0  0  0
    1.9890  -16.3420   13.0820 C   0  0  0  0  0  0  0  0  0  0  0  0
    2.2480  -17.8510   13.0520 C   0  0  0  0  0  0  0  0  0  0  0  0
    1.0990  -18.6130   12.3930 C   0  0  0  0  0  0  0  0  0  0  0  0
    1.5670  -19.8910   11.9690 O   0  0  0  0  0  0  0  0  0  0  0  0
    0.9170  -20.9890   12.4590 C   0  0  0  0  0  0  0  0  0  0  0  0
    1.5310  -21.5840   13.5650 C   0  0  0  0  0  0  0  0  0  0  0  0
    0.9730  -22.7120   14.1680 C   0  0  0  0  0  0  0  0  0  0  0  0
   -0.2070  -23.2550   13.6660 C   0  0  0  0  0  0  0  0  0  0  0  0
   -0.8240  -22.6690   12.5620 C   0  0  0  0  0  0  0  0  0  0  0  0
   -0.2650  -21.5380   11.9590 C   0  0  0  0  0  0  0  0  0  0  0  0
  2  1  1  0
  3  2  1  0
  4  3  1  0
  5  6  1  0
  6 11  2  0
  6  7  1  0
  7  8  2  0
  8  9  1  0
  9  4  1  0
 10  9  2  0
 11 10  1  0
 12  1  1  0
 13 12  1  0
 14 13  1  0
 15 14  1  0
 15 16  1  0
 16 17  2  0
 17 18  1  0
 19 18  2  0
 20 19  1  0
 21 16  1  0
 21 20  2  0
M  END
$$$$
