lig_282
     RDKit          3D

 34 38  0  0  1  0  0  0  0  0999 V2000
    1.3060  -14.9920   10.4100 C   0  0  1  0  0  0  0  0  0  0  0  0
    2.4850  -15.2000   11.3750 C   0  0  0  0  0  0  0  0  0  0  0  0
    2.1690  -16.2560   12.4270 C   0  0  0  0  0  0  0  0  0  0  0  0
    0.9910  -15.8320   13.3270 C   0  0  1  0  0  0  0  0  0  0  0  0
   -0.0200  -14.9410   12.5730 C   0  0  0  0  0  0  0  0  0  0  0  0
   -0.0570  -15.2470   11.0780 C   0  0  0  0  0  0  0  0  0  0  0  0
    0.4800  -14.2450    7.8050 O   0  0  0  0  0  0  0  0  0  0  0  0
    0.9000  -13.3840    8.5680 C   0  0  0  0  0  0  0  0  0  0  0  0
    1.3710  -13.6520    9.8380 N   0  0  0  0  0  0  0  0  0  0  0  0
    0.9400  -11.9030    8.2290 C   0  0  0  0  0  0  0  0  0  0  0  0
   -0.0940  -11.0690    9.0040 C   0  0  1  0  0  0  0  0  0  0  0  0
   -1.4480  -11.8050    9.0510 C   0  0  0  0  0  0  0  0  0  0  0  0
   -2.2690  -11.5280   10.3140 C   0  0  0  0  0  0  0  0  0  0  0  0
   -2.0660  -10.1220   10.8670 C   0  0  1  0  0  0  0  0  0  0  0  0
   -0.5930   -9.8050   11.1510 C   0  0  0  0  0  0  0  0  0  0  0  0
    0.3880  -10.7290   10.4200 C   0  0  0  0  0  0  0  0  0  0  0  0
   -2.6140   -9.1710    9.9550 O   0  0  0  0  0  0  0  0  0  0  0  0
    0.2820  -17.0500   13.9600 C   0  0  0  0  0  0  0  0  0  0  0  0
    0.0820  -18.2130   12.9740 C   0  0  0  0  0  0  0  0  0  0  0  0
   -0.0080  -19.5200   13.6490 N   0  0  0  0  0  0  0  0  0  0  0  0
   -0.7820  -20.5030   12.8580 C   0  0  0  0  0  0  0  0  0  0  0  0
   -0.9370  -21.8700   13.5650 C   0  0  0  0  0  0  0  0  0  0  0  0
   -1.4920  -21.7240   14.9290 N   0  0  0  0  0  0  0  0  0  0  0  0
   -0.8280  -20.6960   15.7330 C   0  0  0  0  0  0  0  0  0  0  0  0
   -0.6830  -19.3660   14.9570 C   0  0  0  0  0  0  0  0  0  0  0  0
   -1.8120  -22.9610   15.5120 C   0  0  0  0  0  0  0  0  0  0  0  0
   -0.9200  -23.9860   15.3010 N   0  0  0  0  0  0  0  0  0  0  0  0
   -1.1260  -25.2350   15.7730 C   0  0  0  0  0  0  0  0  0  0  0  0
   -2.2200  -25.6240   16.5050 C   0  0  0  0  0  0  0  0  0  0  0  0
   -3.1200  -24.5990   16.7270 C   0  0  0  0  0  0  0  0  0  0  0  0
   -4.2760  -24.7490   17.4310 O   0  0  0  0  0  0  0  0  0  0  0  0
   -4.8890  -23.5450   17.4480 C   0  0  0  0  0  0  0  0  0  0  0  0
   -4.1400  -22.6200   16.7600 C   0  0  0  0  0  0  0  0  0  0  0  0
   -2.9750  -23.2900   16.2690 C   0  0  0  0  0  0  0  0  0  0  0  0
  1  9  1  1
  1  6  1  0
  1  2  1  0
  2  3  1  0
  3  4  1  0
  4 18  1  6
  5  4  1  0
  6  5  1  0
  7  8  2  0
  8  9  1  0
 10  8  1  0
 11 10  1  1
 11 12  1  0
 11 16  1  0
 12 13  1  0
 13 14  1  0
 14 17  1  6
 14 15  1  0
 16 15  1  0
 19 20  1  0
 19 18  1  0
 20 25  1  0
 21 22  1  0
 21 20  1  0
 22 23  1  0
 23 26  1  0
 23 24  1  0
 25 24  1  0
 26 34  1  0
 27 26  2  0
 27 28  1  0
 28 29  2  0
 29 30  1  0
 30 31  1  0
 31 32  1  0
 33 32  2  0
 34 30  2  0
 34 33  1  0
M  END
$$$$
