lig_057
     RDKit          3D

 28 30  0  0  1  0  0  0  0  0999 V2000
  -33.9140    3.1440    8.7960 S   0  0  0  0  0  0  0  0  0  0  0  0
  -34.7060    2.8110    7.6310 O   0  0  0  0  0  0  0  0  0  0  0  0
  -32.8980    2.2370    9.2840 O   0  0  0  0  0  0  0  0  0  0  0  0
  -31.8220    7.1190    7.8900 C   0  0  0  0  0  0  0  0  0  0  0  0
  -33.0440    6.8090    7.2880 C   0  0  0  0  0  0  0  0  0  0  0  0
  -33.6870    5.5960    7.5640 C   0  0  0  0  0  0  0  0  0  0  0  0
  -33.1160    4.6990    8.4680 C   0  0  0  0  0  0  0  0  0  0  0  0
  -31.8810    4.9810    9.0530 C   0  0  0  0  0  0  0  0  0  0  0  0
  -31.2430    6.1910    8.7670 C   0  0  0  0  0  0  0  0  0  0  0  0
  -31.6110    9.6090    7.6800 C   0  0  0  0  0  0  0  0  0  0  0  0
  -32.7630    9.9420    7.9290 O   0  0  0  0  0  0  0  0  0  0  0  0
  -31.1130    8.3160    7.6610 N   0  0  0  0  0  0  0  0  0  0  0  0
  -30.5250   10.6250    7.3510 C   0  0  0  0  0  0  0  0  0  0  0  0
  -29.3000    9.9810    6.7030 C   0  0  0  0  0  0  0  0  0  0  0  0
  -29.0700   12.3120    5.7710 C   0  0  0  0  0  0  0  0  0  0  0  0
  -28.3370   11.0380    6.1630 C   0  0  0  0  0  0  0  0  0  0  0  0
  -34.9650    3.4960   10.0630 N   0  0  0  0  0  0  0  0  0  0  0  0
  -34.4370    3.9010   11.3790 C   0  0  0  0  0  0  0  0  0  0  0  0
  -34.6190    5.3920   11.6190 C   0  0  0  0  0  0  0  0  0  0  0  0
  -36.0680    5.8140   11.4190 C   0  0  0  0  0  0  0  0  0  0  0  0
  -36.5700    5.3760   10.0440 C   0  0  0  0  0  0  0  0  0  0  0  0
  -36.3770    3.8680    9.7740 C   0  0  2  0  0  0  0  0  0  0  0  0
  -37.3510    2.9250   10.4670 C   0  0  0  0  0  0  0  0  0  0  0  0
  -38.6330    3.2800   10.9040 C   0  0  0  0  0  0  0  0  0  0  0  0
  -39.4610    2.3310   11.5040 C   0  0  0  0  0  0  0  0  0  0  0  0
  -38.9900    1.0390   11.6430 C   0  0  0  0  0  0  0  0  0  0  0  0
  -37.7720    0.6440   11.2250 N   0  0  0  0  0  0  0  0  0  0  0  0
  -36.9900    1.5870   10.6460 C   0  0  0  0  0  0  0  0  0  0  0  0
  1  3  2  0
  1 17  1  0
  2  1  2  0
  4  9  2  0
  5  6  2  0
  5  4  1  0
  6  7  1  0
  7  1  1  0
  7  8  2  0
  9  8  1  0
 10 11  2  0
 12 10  1  0
 12  4  1  0
 13 10  1  0
 14 13  1  0
 15 16  1  0
 16 14  1  0
 17 18  1  0
 18 19  1  0
 20 19  1  0
 21 20  1  0
 22 21  1  0
 22 17  1  0
 22 23  1  1
 23 28  1  0
 23 24  2  0
 24 25  1  0
 25 26  2  0
 27 26  1  0
 28 27  2  0
M  END
$$$$
