lig_204
     RDKit          3D

 28 31  0  0  0  0  0  0  0  0999 V2000
   -0.9930  -17.8090   11.5060 O   0  0  0  0  0  0  0  0  0  0  0  0
   -0.1100  -17.0810   11.9310 C   0  0  0  0  0  0  0  0  0  0  0  0
    0.5560  -17.2180   13.1510 N   0  0  0  0  0  0  0  0  0  0  0  0
    1.3730  -16.0520   13.4120 C   0  0  0  0  0  0  0  0  0  0  0  0
    1.5540  -15.4430   12.0270 C   0  0  0  0  0  0  0  0  0  0  0  0
    0.4210  -15.9610   11.2930 N   0  0  0  0  0  0  0  0  0  0  0  0
    0.1040  -18.1180   14.1970 C   0  0  0  0  0  0  0  0  0  0  0  0
    0.9250  -19.4220   14.3050 C   0  0  0  0  0  0  0  0  0  0  0  0
    0.6970  -20.3710   13.1900 N   0  0  0  0  0  0  0  0  0  0  0  0
   -0.7340  -20.7860   13.1200 C   0  0  0  0  0  0  0  0  0  0  0  0
   -0.8060  -22.1440   13.7390 C   0  0  0  0  0  0  0  0  0  0  0  0
   -1.9170  -22.8960   14.0840 C   0  0  0  0  0  0  0  0  0  0  0  0
   -1.7100  -24.1630   14.6330 C   0  0  0  0  0  0  0  0  0  0  0  0
   -0.4090  -24.6580   14.8180 C   0  0  0  0  0  0  0  0  0  0  0  0
    0.7020  -23.8930   14.4560 C   0  0  0  0  0  0  0  0  0  0  0  0
    0.4820  -22.6350   13.9220 C   0  0  0  0  0  0  0  0  0  0  0  0
    1.4680  -21.6280   13.4280 C   0  0  0  0  0  0  0  0  0  0  0  0
    0.1390  -15.6140    9.9170 C   0  0  0  0  0  0  0  0  0  0  0  0
    0.2740  -14.1330    9.6530 C   0  0  0  0  0  0  0  0  0  0  0  0
    1.0580  -13.6750    8.5850 C   0  0  0  0  0  0  0  0  0  0  0  0
    1.2030  -12.3090    8.3450 C   0  0  0  0  0  0  0  0  0  0  0  0
    0.5660  -11.3830    9.1700 C   0  0  0  0  0  0  0  0  0  0  0  0
   -0.2280  -11.8150   10.2430 C   0  0  0  0  0  0  0  0  0  0  0  0
   -0.3600  -13.1940   10.4800 C   0  0  0  0  0  0  0  0  0  0  0  0
   -0.8970  -10.8180   11.1570 C   0  0  0  0  0  0  0  0  0  0  0  0
   -0.0370   -9.8950   11.6720 F   0  0  0  0  0  0  0  0  0  0  0  0
   -1.8780  -10.1040   10.5360 F   0  0  0  0  0  0  0  0  0  0  0  0
   -1.4910  -11.4150   12.2270 F   0  0  0  0  0  0  0  0  0  0  0  0
  1  2  2  0
  2  3  1  0
  3  4  1  0
  3  7  1  0
  5  4  1  0
  6  2  1  0
  6  5  1  0
  7  8  1  0
  9 17  1  0
  9  8  1  0
 10  9  1  0
 10 11  1  0
 11 16  1  0
 11 12  2  0
 12 13  1  0
 13 14  2  0
 15 14  1  0
 16 15  2  0
 17 16  1  0
 18  6  1  0
 19 18  1  0
 19 24  2  0
 20 19  1  0
 21 20  2  0
 21 22  1  0
 22 23  2  0
 23 24  1  0
 23 25  1  0
 25 26  1  0
 25 28  1  0
 27 25  1  0
M  END
$$$$
