lig_202
     RDKit          3D

 26 28  0  0  1  0  0  0  0  0999 V2000
    0.4440  -15.1640   11.1240 C   0  0  1  0  0  0  0  0  0  0  0  0
    0.0910  -16.4100   10.2810 C   0  0  0  0  0  0  0  0  0  0  0  0
   -0.4220  -17.5450   11.1680 C   0  0  0  0  0  0  0  0  0  0  0  0
    0.4420  -17.8120   12.3700 C   0  0  0  0  0  0  0  0  0  0  0  0
    0.2710  -19.0070   13.0870 C   0  0  0  0  0  0  0  0  0  0  0  0
    1.0360  -19.2830   14.2270 C   0  0  0  0  0  0  0  0  0  0  0  0
    1.9860  -18.3480   14.6470 C   0  0  0  0  0  0  0  0  0  0  0  0
    2.1560  -17.1520   13.9470 C   0  0  0  0  0  0  0  0  0  0  0  0
    1.3770  -16.8680   12.8160 C   0  0  0  0  0  0  0  0  0  0  0  0
    1.6100  -15.5780   12.0640 C   0  0  0  0  0  0  0  0  0  0  0  0
    0.7800  -13.9820   10.2850 N   0  0  0  0  0  0  0  0  0  0  0  0
    1.4460  -14.2880    9.0060 C   0  0  0  0  0  0  0  0  0  0  0  0
   -0.1470  -14.4410    6.9800 C   0  0  0  0  0  0  0  0  0  0  0  0
    0.9120  -13.6380    7.7170 C   0  0  0  0  0  0  0  0  0  0  0  0
   -0.3270  -13.0270   10.1090 C   0  0  0  0  0  0  0  0  0  0  0  0
   -0.9920  -12.7190   11.4550 C   0  0  0  0  0  0  0  0  0  0  0  0
   -1.3730  -11.2490   11.5600 C   0  0  0  0  0  0  0  0  0  0  0  0
    0.8610  -20.5840   14.9700 C   0  0  0  0  0  0  0  0  0  0  0  0
    1.3870  -21.7710   14.1600 C   0  0  0  0  0  0  0  0  0  0  0  0
    0.2610  -22.6170   13.6180 C   0  0  0  0  0  0  0  0  0  0  0  0
   -0.2270  -23.7060   14.3540 C   0  0  0  0  0  0  0  0  0  0  0  0
   -1.2810  -24.4800   13.8630 C   0  0  0  0  0  0  0  0  0  0  0  0
   -1.8510  -24.1570   12.6350 C   0  0  0  0  0  0  0  0  0  0  0  0
   -1.3850  -23.0780   11.8960 C   0  0  0  0  0  0  0  0  0  0  0  0
   -0.3310  -22.3070   12.3860 C   0  0  0  0  0  0  0  0  0  0  0  0
   -2.8820  -24.8840   12.1180 O   0  0  0  0  0  0  0  0  0  0  0  0
  1 11  1  6
  1 10  1  0
  2  1  1  0
  2  3  1  0
  3  4  1  0
  4  9  2  0
  4  5  1  0
  5  6  2  0
  6  7  1  0
  6 18  1  0
  8  7  2  0
  9  8  1  0
 10  9  1  0
 12 11  1  0
 13 14  1  0
 14 12  1  0
 15 11  1  0
 15 16  1  0
 16 17  1  0
 19 18  1  0
 20 19  1  0
 20 21  1  0
 22 21  2  0
 23 22  1  0
 24 25  1  0
 24 23  2  0
 25 20  2  0
 26 23  1  0
M  END
$$$$
