lig_058
     RDKit          3D

 31 34  0  0  0  0  0  0  0  0999 V2000
  -27.5960    2.1270   11.3640 N   0  0  0  0  0  0  0  0  0  0  0  0
  -26.8310    3.2280   12.0210 C   0  0  0  0  0  0  0  0  0  0  0  0
  -25.8650    3.9030   11.0490 C   0  0  0  0  0  0  0  0  0  0  0  0
  -26.4050    3.8540    9.6230 C   0  0  0  0  0  0  0  0  0  0  0  0
  -26.5400    2.3940    9.1650 C   0  0  0  0  0  0  0  0  0  0  0  0
  -26.8010    1.4330   10.3210 C   0  0  0  0  0  0  0  0  0  0  0  0
  -28.3980    1.0570   12.4370 S   0  0  0  0  0  0  0  0  0  0  0  0
  -27.8610   -0.2720   12.2420 O   0  0  0  0  0  0  0  0  0  0  0  0
  -28.4030    1.6840   13.7420 O   0  0  0  0  0  0  0  0  0  0  0  0
  -32.6660    1.0910   10.7920 C   0  0  0  0  0  0  0  0  0  0  0  0
  -32.4210    0.6970   12.1160 C   0  0  0  0  0  0  0  0  0  0  0  0
  -31.1210    0.6800   12.6290 C   0  0  0  0  0  0  0  0  0  0  0  0
  -30.0570    1.0530   11.8080 C   0  0  0  0  0  0  0  0  0  0  0  0
  -30.2810    1.4310   10.4820 C   0  0  0  0  0  0  0  0  0  0  0  0
  -31.5860    1.4520    9.9800 C   0  0  0  0  0  0  0  0  0  0  0  0
  -36.2640    1.7480    9.8600 C   0  0  0  0  0  0  0  0  0  0  0  0
  -34.9330    2.1080   10.4720 C   0  0  0  0  0  0  0  0  0  0  0  0
  -34.7690    3.1890   11.0250 O   0  0  0  0  0  0  0  0  0  0  0  0
  -34.0080    1.0840   10.3580 N   0  0  0  0  0  0  0  0  0  0  0  0
  -25.4990    4.5000    8.7230 O   0  0  0  0  0  0  0  0  0  0  0  0
  -25.8510    5.6870    8.1480 C   0  0  0  0  0  0  0  0  0  0  0  0
  -25.0380    6.5050    7.3650 C   0  0  0  0  0  0  0  0  0  0  0  0
  -25.5360    7.7050    6.8330 C   0  0  0  0  0  0  0  0  0  0  0  0
  -26.8610    8.0890    7.0810 C   0  0  0  0  0  0  0  0  0  0  0  0
  -27.6790    7.2650    7.8630 C   0  0  0  0  0  0  0  0  0  0  0  0
  -27.1710    6.0730    8.3890 C   0  0  0  0  0  0  0  0  0  0  0  0
  -27.3830    9.2950    6.5540 N   0  0  0  0  0  0  0  0  0  0  0  0
  -28.5040    9.9970    6.9180 C   0  0  0  0  0  0  0  0  0  0  0  0
  -28.6130   11.0670    6.1670 N   0  0  0  0  0  0  0  0  0  0  0  0
  -27.5410   11.0320    5.3150 N   0  0  0  0  0  0  0  0  0  0  0  0
  -26.7900    9.9640    5.5380 N   0  0  0  0  0  0  0  0  0  0  0  0
  1  2  1  0
  1  7  1  0
  3  2  1  0
  4  3  1  0
  5  4  1  0
  5  6  1  0
  6  1  1  0
  7  9  2  0
  8  7  2  0
 10 11  1  0
 11 12  2  0
 13  7  1  0
 13 12  1  0
 14 13  2  0
 15 14  1  0
 15 10  2  0
 16 17  1  0
 17 18  2  0
 19 17  1  0
 19 10  1  0
 20  4  1  0
 21 26  2  0
 21 20  1  0
 22 21  1  0
 23 24  1  0
 23 22  2  0
 24 25  2  0
 25 26  1  0
 27 28  1  0
 27 24  1  0
 29 28  2  0
 30 31  2  0
 30 29  1  0
 31 27  1  0
M  END
$$$$
