lig_278
     RDKit          3D

 32 35  0  0  1  0  0  0  0  0999 V2000
    0.3530  -16.3330   12.1870 N   0  0  0  0  0  0  0  0  0  0  0  0
    0.0700  -15.2350   11.2320 C   0  0  2  0  0  0  0  0  0  0  0  0
    1.2980  -14.8120   10.4050 C   0  0  0  0  0  0  0  0  0  0  0  0
    0.8860  -13.9150    9.2400 C   0  0  0  0  0  0  0  0  0  0  0  0
   -0.0060  -12.7760    9.6590 C   0  0  0  0  0  0  0  0  0  0  0  0
   -0.1460  -11.6690    8.8050 C   0  0  0  0  0  0  0  0  0  0  0  0
   -0.9850  -10.6070    9.1430 C   0  0  0  0  0  0  0  0  0  0  0  0
   -1.6910  -10.6540   10.3380 C   0  0  0  0  0  0  0  0  0  0  0  0
   -1.5750  -11.7450   11.1910 C   0  0  0  0  0  0  0  0  0  0  0  0
   -0.7410  -12.8230   10.8550 C   0  0  0  0  0  0  0  0  0  0  0  0
   -0.6260  -13.9810   11.8190 C   0  0  0  0  0  0  0  0  0  0  0  0
   -2.5210   -9.6390   10.7150 O   0  0  0  0  0  0  0  0  0  0  0  0
    1.7450  -16.4350   12.6420 C   0  0  0  0  0  0  0  0  0  0  0  0
    1.9090  -16.3730   14.1660 C   0  0  0  0  0  0  0  0  0  0  0  0
    2.3250  -17.7190   14.7620 C   0  0  0  0  0  0  0  0  0  0  0  0
    0.2240  -19.0380   15.6340 N   0  0  0  0  0  0  0  0  0  0  0  0
    1.1530  -18.4570   15.2500 C   0  0  0  0  0  0  0  0  0  0  0  0
   -0.2390  -17.6560   11.9150 C   0  0  0  0  0  0  0  0  0  0  0  0
    0.7340  -18.8140   11.6590 C   0  0  0  0  0  0  0  0  0  0  0  0
    0.0620  -19.9960   10.9390 C   0  0  0  0  0  0  0  0  0  0  0  0
    0.3570  -21.3010   11.5460 N   0  0  0  0  0  0  0  0  0  0  0  0
    0.9940  -21.1250   12.8710 C   0  0  0  0  0  0  0  0  0  0  0  0
    0.9260  -22.3770   13.7750 C   0  0  0  0  0  0  0  0  0  0  0  0
   -0.4720  -22.7470   14.0450 N   0  0  0  0  0  0  0  0  0  0  0  0
   -1.4650  -22.3210   13.0490 C   0  0  0  0  0  0  0  0  0  0  0  0
   -0.8270  -22.1840   11.6440 C   0  0  0  0  0  0  0  0  0  0  0  0
   -0.8350  -23.4270   15.1960 C   0  0  0  0  0  0  0  0  0  0  0  0
   -0.6100  -22.8900   16.4750 C   0  0  0  0  0  0  0  0  0  0  0  0
   -0.9720  -23.5720   17.6440 C   0  0  0  0  0  0  0  0  0  0  0  0
   -1.5750  -24.8210   17.5630 C   0  0  0  0  0  0  0  0  0  0  0  0
   -1.8120  -25.3820   16.3150 C   0  0  0  0  0  0  0  0  0  0  0  0
   -1.4440  -24.6910   15.1520 C   0  0  0  0  0  0  0  0  0  0  0  0
  1 13  1  0
  2 11  1  0
  2  1  1  1
  3  2  1  0
  4  5  1  0
  4  3  1  0
  5 10  2  0
  6  7  2  0
  6  5  1  0
  7  8  1  0
  8 12  1  0
  8  9  2  0
 10  9  1  0
 10 11  1  0
 13 14  1  0
 14 15  1  0
 15 17  1  0
 17 16  3  0
 18  1  1  0
 19 18  1  0
 20 21  1  0
 20 19  1  0
 21 26  1  0
 21 22  1  0
 22 23  1  0
 23 24  1  0
 24 27  1  0
 25 24  1  0
 26 25  1  0
 27 28  2  0
 28 29  1  0
 30 29  2  0
 31 30  1  0
 32 27  1  0
 32 31  2  0
M  END
$$$$
