lig_217
     RDKit          3D

 29 33  0  0  1  0  0  0  0  0999 V2000
   -1.0960   12.2330   15.8250 C   0  0  0  0  0  0  0  0  0  0  0  0
   -2.0550   13.1800   15.4410 C   0  0  0  0  0  0  0  0  0  0  0  0
   -3.3970   12.8160   15.2790 C   0  0  0  0  0  0  0  0  0  0  0  0
   -3.7990   11.5030   15.4990 C   0  0  0  0  0  0  0  0  0  0  0  0
   -2.8530   10.5510   15.8820 C   0  0  0  0  0  0  0  0  0  0  0  0
   -1.4890   10.8970   16.0520 C   0  0  0  0  0  0  0  0  0  0  0  0
   -0.5140    9.9240   16.4440 N   0  0  0  0  0  0  0  0  0  0  0  0
   -0.8740    8.6840   16.6380 C   0  0  0  0  0  0  0  0  0  0  0  0
    0.0370    7.7280   17.0160 N   0  0  0  0  0  0  0  0  0  0  0  0
   -2.2190    8.3080   16.4850 N   0  0  0  0  0  0  0  0  0  0  0  0
   -2.6960    7.0660   16.7150 N   0  0  0  0  0  0  0  0  0  0  0  0
   -4.0060    7.2490   16.4780 C   0  0  0  0  0  0  0  0  0  0  0  0
   -4.3590    8.5320   16.1050 N   0  0  0  0  0  0  0  0  0  0  0  0
   -3.2100    9.1720   16.1310 C   0  0  0  0  0  0  0  0  0  0  0  0
   -5.0450    6.1780   16.6070 C   0  0  1  0  0  0  0  0  0  0  0  0
   -5.2510    5.3020   15.3480 C   0  0  0  0  0  0  0  0  0  0  0  0
   -5.3500    3.8230   15.7690 C   0  0  2  0  0  0  0  0  0  0  0  0
   -6.4680    3.6710   16.8130 C   0  0  0  0  0  0  0  0  0  0  0  0
   -6.0860    4.4430   18.0830 C   0  0  0  0  0  0  0  0  0  0  0  0
   -4.7940    5.2520   17.8350 C   0  0  1  0  0  0  0  0  0  0  0  0
   -3.6740    4.3390   17.5150 N   0  0  0  0  0  0  0  0  0  0  0  0
   -4.0220    3.4030   16.4320 C   0  0  0  0  0  0  0  0  0  0  0  0
   -3.0580    3.6890   18.6900 C   0  0  0  0  0  0  0  0  0  0  0  0
   -1.5220    3.5320   18.6940 C   0  0  0  0  0  0  0  0  0  0  0  0
   -0.9100    4.4930   17.9680 F   0  0  0  0  0  0  0  0  0  0  0  0
   -1.0480    3.6180   19.9600 F   0  0  0  0  0  0  0  0  0  0  0  0
   -1.1360    2.3300   18.2070 F   0  0  0  0  0  0  0  0  0  0  0  0
    0.6620   13.8510   15.8350 C   0  0  0  0  0  0  0  0  0  0  0  0
    0.2360   12.5080   16.0090 O   0  0  0  0  0  0  0  0  0  0  0  0
  1 29  1  0
  1  6  2  0
  2  1  1  0
  3  2  2  0
  3  4  1  0
  4  5  2  0
  5  6  1  0
  5 14  1  0
  6  7  1  0
  7  8  2  0
  8  9  1  0
 10  8  1  0
 10 11  1  0
 12 11  2  0
 13 14  2  0
 13 12  1  0
 14 10  1  0
 15 12  1  6
 15 20  1  0
 16 15  1  0
 17 16  1  1
 17 22  1  0
 17 18  1  0
 18 19  1  0
 20 19  1  6
 21 20  1  0
 21 23  1  0
 22 21  1  0
 23 24  1  0
 24 26  1  0
 25 24  1  0
 27 24  1  0
 28 29  1  0
M  END
$$$$
