lig_147
     RDKit          3D

 30 32  0  0  1  0  0  0  0  0999 V2000
   20.2320   21.1400   13.7070 N   0  0  0  0  0  0  0  0  0  0  0  0
   20.3060   19.6930   13.4900 C   0  0  0  0  0  0  0  0  0  0  0  0
   21.2080   19.3010   12.3190 C   0  0  0  0  0  0  0  0  0  0  0  0
   20.7870   19.9670   10.9890 C   0  0  0  0  0  0  0  0  0  0  0  0
   19.9880   21.2570   11.2560 C   0  0  0  0  0  0  0  0  0  0  0  0
   20.4830   21.9560   12.5220 C   0  0  0  0  0  0  0  0  0  0  0  0
   20.9120   21.6210   14.9150 C   0  0  0  0  0  0  0  0  0  0  0  0
   22.4480   21.6990   14.8470 C   0  0  0  0  0  0  0  0  0  0  0  0
   24.3400   18.7690   17.4070 C   0  0  0  0  0  0  0  0  0  0  0  0
   23.8780   19.9730   17.9380 C   0  0  0  0  0  0  0  0  0  0  0  0
   23.2630   20.9180   17.1090 C   0  0  0  0  0  0  0  0  0  0  0  0
   23.0970   20.6690   15.7410 C   0  0  0  0  0  0  0  0  0  0  0  0
   23.5660   19.4620   15.2120 C   0  0  0  0  0  0  0  0  0  0  0  0
   24.1800   18.5210   16.0410 C   0  0  0  0  0  0  0  0  0  0  0  0
   25.6250   16.7720   17.3330 C   0  0  0  0  0  0  0  0  0  0  0  0
   24.9570   17.7650   18.1010 O   0  0  0  0  0  0  0  0  0  0  0  0
   20.0350   18.9730   10.0680 C   0  0  2  0  0  0  0  0  0  0  0  0
   20.8720   18.5200    8.8730 C   0  0  0  0  0  0  0  0  0  0  0  0
   21.2820   19.5090    7.9580 C   0  0  0  0  0  0  0  0  0  0  0  0
   22.0570   19.1840    6.8470 C   0  0  0  0  0  0  0  0  0  0  0  0
   22.4420   17.8630    6.6250 C   0  0  0  0  0  0  0  0  0  0  0  0
   22.0350   16.8530    7.5000 C   0  0  0  0  0  0  0  0  0  0  0  0
   21.2380   17.1820    8.6170 C   0  0  0  0  0  0  0  0  0  0  0  0
   20.8370   16.2490    9.5460 O   0  0  0  0  0  0  0  0  0  0  0  0
   21.7860   16.0120   10.5870 C   0  0  0  0  0  0  0  0  0  0  0  0
   22.4400   15.5500    7.3750 O   0  0  0  0  0  0  0  0  0  0  0  0
   23.8440   15.2680    7.3890 C   0  0  0  0  0  0  0  0  0  0  0  0
   24.1540   13.8790    7.9310 C   0  0  0  0  0  0  0  0  0  0  0  0
   23.2020   13.5320    8.8430 F   0  0  0  0  0  0  0  0  0  0  0  0
   18.7460   19.4870    9.7440 O   0  0  0  0  0  0  0  0  0  0  0  0
  1  7  1  0
  2  1  1  0
  3  2  1  0
  4  5  1  0
  4  3  1  0
  5  6  1  0
  6  1  1  0
  8  7  1  0
  8 12  1  0
  9 10  1  0
  9 16  1  0
 11 10  2  0
 12 11  1  0
 13 12  2  0
 13 14  1  0
 14  9  2  0
 15 16  1  0
 17 30  1  6
 17  4  1  0
 18 17  1  0
 19 18  2  0
 20 19  1  0
 21 20  2  0
 21 22  1  0
 22 23  2  0
 23 18  1  0
 23 24  1  0
 24 25  1  0
 26 27  1  0
 26 22  1  0
 27 28  1  0
 28 29  1  0
M  END
$$$$
