lig_277
     RDKit          3D

 22 24  0  0  0  0  0  0  0  0999 V2000
   -1.6790    8.9490   16.3810 C   0  0  0  0  0  0  0  0  0  0  0  0
   -2.8640    9.4740   16.0020 N   0  0  0  0  0  0  0  0  0  0  0  0
   -2.9040   10.7740   15.6080 C   0  0  0  0  0  0  0  0  0  0  0  0
   -1.6910   11.4940   15.6080 C   0  0  0  0  0  0  0  0  0  0  0  0
   -1.3790   12.7920   15.2540 N   0  0  0  0  0  0  0  0  0  0  0  0
   -0.0790   12.8970   15.4630 C   0  0  0  0  0  0  0  0  0  0  0  0
    0.4540   11.7220   15.9260 N   0  0  0  0  0  0  0  0  0  0  0  0
   -0.5580   10.8140   16.0190 C   0  0  0  0  0  0  0  0  0  0  0  0
   -0.4660    9.5400   16.4220 N   0  0  0  0  0  0  0  0  0  0  0  0
    0.7110   14.0650   15.2460 C   0  0  0  0  0  0  0  0  0  0  0  0
    1.2180   14.5570   14.0550 C   0  0  0  0  0  0  0  0  0  0  0  0
    1.9340   15.7380   14.3590 C   0  0  0  0  0  0  0  0  0  0  0  0
    1.8250   15.9060   15.7180 C   0  0  0  0  0  0  0  0  0  0  0  0
    1.0910   14.9050   16.2640 O   0  0  0  0  0  0  0  0  0  0  0  0
   -4.1070   11.3760   15.2280 N   0  0  0  0  0  0  0  0  0  0  0  0
   -5.2690   10.9530   15.9790 C   0  0  0  0  0  0  0  0  0  0  0  0
   -1.7380    6.4260   17.1210 C   0  0  0  0  0  0  0  0  0  0  0  0
   -1.7110    7.5790   16.7830 C   0  0  0  0  0  0  0  0  0  0  0  0
   -1.7770    5.0170   17.5350 C   0  0  0  0  0  0  0  0  0  0  0  0
   -0.6630    4.7100   18.5380 C   0  0  0  0  0  0  0  0  0  0  0  0
   -1.9920    2.5380   18.7000 C   0  0  0  0  0  0  0  0  0  0  0  0
   -0.7430    3.2960   19.1200 C   0  0  0  0  0  0  0  0  0  0  0  0
  1  9  1  0
  1 18  1  0
  2  1  2  0
  3  4  2  0
  3  2  1  0
  4  8  1  0
  5  6  2  0
  5  4  1  0
  6  7  1  0
  7  8  1  0
  8  9  2  0
 10  6  1  0
 10 14  1  0
 11 12  1  0
 11 10  2  0
 12 13  2  0
 13 14  1  0
 15  3  1  0
 15 16  1  0
 17 19  1  0
 18 17  3  0
 19 20  1  0
 20 22  1  0
 21 22  1  0
M  END
$$$$
