lig_113
     RDKit          3D

 31 36  0  0  1  0  0  0  0  0999 V2000
   -2.1210    9.2340   16.3260 C   0  0  0  0  0  0  0  0  0  0  0  0
   -2.7030    7.9860   16.3980 N   0  0  0  0  0  0  0  0  0  0  0  0
   -1.7710    7.2650   16.9830 C   0  0  0  0  0  0  0  0  0  0  0  0
   -1.7210    5.8780   17.3900 C   0  0  0  0  0  0  0  0  0  0  0  0
   -2.7890    4.9880   17.1710 C   0  0  0  0  0  0  0  0  0  0  0  0
   -2.6880    3.6600   17.5880 C   0  0  0  0  0  0  0  0  0  0  0  0
   -1.5210    3.2660   18.2130 C   0  0  0  0  0  0  0  0  0  0  0  0
   -0.4720    4.1350   18.4310 C   0  0  0  0  0  0  0  0  0  0  0  0
   -0.5290    5.4590   18.0330 C   0  0  0  0  0  0  0  0  0  0  0  0
    0.5660    6.3390   18.2650 N   0  0  0  0  0  0  0  0  0  0  0  0
    0.4880    7.5810   17.8650 C   0  0  0  0  0  0  0  0  0  0  0  0
    1.5230    8.4580   18.0650 N   0  0  0  0  0  0  0  0  0  0  0  0
   -0.6790    8.0460   17.2320 N   0  0  0  0  0  0  0  0  0  0  0  0
   -0.8830    9.3240   16.8390 N   0  0  0  0  0  0  0  0  0  0  0  0
    0.5740    3.5290   19.0630 O   0  0  0  0  0  0  0  0  0  0  0  0
    0.0540    2.2050   19.2070 C   0  0  0  0  0  0  0  0  0  0  0  0
    0.8930    1.3400   18.5860 F   0  0  0  0  0  0  0  0  0  0  0  0
    0.0370    1.8860   20.5240 F   0  0  0  0  0  0  0  0  0  0  0  0
   -1.2660    2.0130   18.6780 O   0  0  0  0  0  0  0  0  0  0  0  0
   -2.8260   10.3970   15.7170 C   0  0  0  0  0  0  0  0  0  0  0  0
   -1.4620   11.7780   14.0780 C   0  0  0  0  0  0  0  0  0  0  0  0
   -1.9050   11.6280   15.5430 C   0  0  1  0  0  0  0  0  0  0  0  0
   -2.4660   12.9100   15.9940 N   0  0  0  0  0  0  0  0  0  0  0  0
   -2.4940   13.9770   14.9700 C   0  0  0  0  0  0  0  0  0  0  0  0
   -2.4350   15.2450   15.7570 C   0  0  0  0  0  0  0  0  0  0  0  0
   -2.6150   16.5510   15.3520 C   0  0  0  0  0  0  0  0  0  0  0  0
   -2.4670   17.5250   16.3300 C   0  0  0  0  0  0  0  0  0  0  0  0
   -2.1540   17.2710   17.6290 N   0  0  0  0  0  0  0  0  0  0  0  0
   -1.9830   15.9770   17.9830 C   0  0  0  0  0  0  0  0  0  0  0  0
   -2.1170   14.9530   17.0790 C   0  0  0  0  0  0  0  0  0  0  0  0
   -1.9430   13.4840   17.2490 C   0  0  0  0  0  0  0  0  0  0  0  0
  1  2  1  0
  1 14  2  0
  2  3  2  0
  3 13  1  0
  3  4  1  0
  4  9  2  0
  5  4  1  0
  5  6  2  0
  6  7  1  0
  7  8  2  0
  7 19  1  0
  8 15  1  0
  9 10  1  0
  9  8  1  0
 11 12  1  0
 11 10  2  0
 13 11  1  0
 14 13  1  0
 15 16  1  0
 16 18  1  0
 17 16  1  0
 19 16  1  0
 20  1  1  0
 22 21  1  6
 22 20  1  0
 22 23  1  0
 23 31  1  0
 24 25  1  0
 24 23  1  0
 25 30  2  0
 26 25  1  0
 26 27  2  0
 27 28  1  0
 28 29  2  0
 30 31  1  0
 30 29  1  0
M  END
$$$$
