lig_115
     RDKit          3D

 22 24  0  0  0  0  0  0  0  0999 V2000
    1.3940    8.0420   18.0840 N   0  0  0  0  0  0  0  0  0  0  0  0
    0.4090    7.0870   17.9620 C   0  0  0  0  0  0  0  0  0  0  0  0
   -0.7520    7.4640   17.4350 N   0  0  0  0  0  0  0  0  0  0  0  0
   -1.6950    6.4960   17.3440 C   0  0  0  0  0  0  0  0  0  0  0  0
   -1.5240    5.2010   17.7680 C   0  0  0  0  0  0  0  0  0  0  0  0
   -0.2920    4.9330   18.3090 C   0  0  0  0  0  0  0  0  0  0  0  0
    0.6800    5.8650   18.4180 N   0  0  0  0  0  0  0  0  0  0  0  0
    0.0730    3.6170   18.8150 C   0  0  0  0  0  0  0  0  0  0  0  0
   -0.6470    2.4810   19.1360 C   0  0  0  0  0  0  0  0  0  0  0  0
    0.2880    1.5170   19.5820 C   0  0  0  0  0  0  0  0  0  0  0  0
    1.5200    2.1180   19.5070 C   0  0  0  0  0  0  0  0  0  0  0  0
    1.4030    3.3890   19.0440 O   0  0  0  0  0  0  0  0  0  0  0  0
   -2.9990    6.9050   16.7330 C   0  0  0  0  0  0  0  0  0  0  0  0
   -3.1960    8.0590   16.3690 O   0  0  0  0  0  0  0  0  0  0  0  0
   -3.9250    5.8900   16.6360 N   0  0  0  0  0  0  0  0  0  0  0  0
   -5.2940    6.1200   16.2480 C   0  0  0  0  0  0  0  0  0  0  0  0
   -6.1660    4.9570   16.6400 C   0  0  0  0  0  0  0  0  0  0  0  0
   -5.9370    3.6860   16.0910 C   0  0  0  0  0  0  0  0  0  0  0  0
   -6.7540    2.6080   16.4330 C   0  0  0  0  0  0  0  0  0  0  0  0
   -7.8120    2.7900   17.3220 C   0  0  0  0  0  0  0  0  0  0  0  0
   -8.0560    4.0490   17.8670 C   0  0  0  0  0  0  0  0  0  0  0  0
   -7.2390    5.1300   17.5250 C   0  0  0  0  0  0  0  0  0  0  0  0
  2  1  1  0
  2  7  1  0
  3  2  2  0
  4  3  1  0
  4  5  2  0
  5  6  1  0
  6  7  2  0
  6  8  1  0
  8 12  1  0
  8  9  2  0
  9 10  1  0
 11 10  2  0
 12 11  1  0
 13  4  1  0
 14 13  2  0
 15 13  1  0
 16 15  1  0
 16 17  1  0
 17 22  1  0
 18 19  1  0
 18 17  2  0
 19 20  2  0
 20 21  1  0
 22 21  2  0
M  END
$$$$
