lig_119
     RDKit          3D

 32 36  0  0  1  0  0  0  0  0999 V2000
   -0.3920  -19.5660   13.6340 N   0  0  0  0  0  0  0  0  0  0  0  0
    0.0440  -19.8090   12.2520 C   0  0  0  0  0  0  0  0  0  0  0  0
    0.4260  -18.4110   11.7850 C   0  0  0  0  0  0  0  0  0  0  0  0
    1.0170  -17.8060   13.0290 C   0  0  1  0  0  0  0  0  0  0  0  0
    2.4160  -17.2370   12.9720 C   0  0  0  0  0  0  0  0  0  0  0  0
    1.2510  -16.3070   13.2040 C   0  0  1  0  0  0  0  0  0  0  0  0
    0.6060  -18.6530   14.2170 C   0  0  0  0  0  0  0  0  0  0  0  0
    0.8240  -15.3140   12.1490 C   0  0  0  0  0  0  0  0  0  0  0  0
   -0.3540  -14.5610   12.2660 C   0  0  0  0  0  0  0  0  0  0  0  0
   -0.7510  -13.6620   11.2710 C   0  0  0  0  0  0  0  0  0  0  0  0
    0.0250  -13.4890   10.1170 C   0  0  0  0  0  0  0  0  0  0  0  0
    1.1900  -14.2510    9.9750 C   0  0  0  0  0  0  0  0  0  0  0  0
    1.5770  -15.1490   10.9750 C   0  0  0  0  0  0  0  0  0  0  0  0
   -0.4100  -12.5360    9.0320 C   0  0  0  0  0  0  0  0  0  0  0  0
   -1.5090  -11.8040    9.3730 F   0  0  0  0  0  0  0  0  0  0  0  0
    0.5490  -11.6290    8.6980 F   0  0  0  0  0  0  0  0  0  0  0  0
   -0.7350  -13.1800    7.8770 F   0  0  0  0  0  0  0  0  0  0  0  0
   -0.5370  -20.8220   14.3800 C   0  0  0  0  0  0  0  0  0  0  0  0
    0.7940  -21.5790   14.4770 C   0  0  0  0  0  0  0  0  0  0  0  0
    0.6940  -23.0550   14.0890 C   0  0  0  0  0  0  0  0  0  0  0  0
   -0.9740  -23.5500   13.5460 S   0  0  0  0  0  0  0  0  0  0  0  0
   -3.7740  -23.1200   15.1480 C   0  0  0  0  0  0  0  0  0  0  0  0
   -2.7850  -24.0940   15.5260 N   0  0  0  0  0  0  0  0  0  0  0  0
   -1.5840  -24.3750   14.9360 C   0  0  0  0  0  0  0  0  0  0  0  0
   -0.9840  -25.3420   15.5900 N   0  0  0  0  0  0  0  0  0  0  0  0
   -1.7930  -25.7070   16.6370 N   0  0  0  0  0  0  0  0  0  0  0  0
   -2.8750  -24.9550   16.5960 C   0  0  0  0  0  0  0  0  0  0  0  0
   -4.0430  -25.0620   17.6210 C   0  0  0  0  0  0  0  0  0  0  0  0
   -5.0870  -25.9520   17.4600 C   0  0  0  0  0  0  0  0  0  0  0  0
   -6.1350  -25.7410   18.8000 S   0  0  0  0  0  0  0  0  0  0  0  0
   -5.1850  -24.5400   19.4770 N   0  0  0  0  0  0  0  0  0  0  0  0
   -4.1070  -24.2720   18.7580 N   0  0  0  0  0  0  0  0  0  0  0  0
  1  7  1  0
  1 18  1  0
  2  1  1  0
  3  2  1  0
  4  3  1  6
  4  6  1  0
  4  7  1  0
  5  4  1  0
  5  6  1  0
  6  8  1  6
  8  9  1  0
 10  9  2  0
 11 10  1  0
 12 11  2  0
 12 13  1  0
 13  8  2  0
 14 15  1  0
 14 11  1  0
 16 14  1  0
 17 14  1  0
 18 19  1  0
 20 19  1  0
 21 20  1  0
 21 24  1  0
 22 23  1  0
 23 27  1  0
 24 23  1  0
 24 25  2  0
 25 26  1  0
 27 26  2  0
 27 28  1  0
 28 32  1  0
 29 28  2  0
 29 30  1  0
 30 31  1  0
 32 31  2  0
M  END
$$$$
