lig_074
     RDKit          3D

 35 38  0  0  1  0  0  0  0  0999 V2000
    0.5590  -23.2280   13.8460 C   0  0  0  0  0  0  0  0  0  0  0  0
   -3.2450  -23.9490   15.6730 C   0  0  1  0  0  0  0  0  0  0  0  0
   -3.2960  -23.1830   14.3410 C   0  0  0  0  0  0  0  0  0  0  0  0
   -1.9580  -23.2200   13.5970 C   0  0  0  0  0  0  0  0  0  0  0  0
   -0.7870  -23.2140   14.5810 C   0  0  1  0  0  0  0  0  0  0  0  0
   -0.8160  -24.3450   15.4680 O   0  0  0  0  0  0  0  0  0  0  0  0
   -2.0980  -24.9620   15.6500 C   0  0  0  0  0  0  0  0  0  0  0  0
   -4.1270  -22.4980   17.4960 C   0  0  0  0  0  0  0  0  0  0  0  0
   -5.2950  -22.7780   17.2260 O   0  0  0  0  0  0  0  0  0  0  0  0
   -3.0710  -23.0340   16.8000 N   0  0  0  0  0  0  0  0  0  0  0  0
   -3.8020  -21.4990   18.6010 C   0  0  0  0  0  0  0  0  0  0  0  0
   -3.4090  -16.6560   17.3160 C   0  0  0  0  0  0  0  0  0  0  0  0
   -3.9030  -17.9520   17.7100 N   0  0  0  0  0  0  0  0  0  0  0  0
   -3.1700  -19.0820   17.9290 C   0  0  0  0  0  0  0  0  0  0  0  0
   -4.0720  -20.0690   18.2750 C   0  0  0  0  0  0  0  0  0  0  0  0
   -5.3240  -19.4130   18.2480 C   0  0  0  0  0  0  0  0  0  0  0  0
   -5.2230  -18.1320   17.8900 N   0  0  0  0  0  0  0  0  0  0  0  0
    1.4350  -22.0160   14.2040 C   0  0  0  0  0  0  0  0  0  0  0  0
    0.6910  -20.7390   14.1140 N   0  0  0  0  0  0  0  0  0  0  0  0
    1.5090  -19.6480   14.6880 C   0  0  0  0  0  0  0  0  0  0  0  0
    0.7640  -18.3190   14.8920 C   0  0  0  0  0  0  0  0  0  0  0  0
    0.6370  -17.4990   13.6370 C   0  0  0  0  0  0  0  0  0  0  0  0
    1.1970  -16.2190   13.5600 C   0  0  0  0  0  0  0  0  0  0  0  0
    1.0610  -15.4730   12.3960 C   0  0  0  0  0  0  0  0  0  0  0  0
    0.3630  -16.0310   11.3430 C   0  0  0  0  0  0  0  0  0  0  0  0
   -0.1860  -17.2610   11.3750 N   0  0  0  0  0  0  0  0  0  0  0  0
   -0.0550  -17.9750   12.5220 C   0  0  0  0  0  0  0  0  0  0  0  0
   -0.7050  -19.3320   12.5380 C   0  0  0  0  0  0  0  0  0  0  0  0
    0.3060  -20.4700   12.7100 C   0  0  0  0  0  0  0  0  0  0  0  0
    0.2510  -15.2660   10.2020 O   0  0  0  0  0  0  0  0  0  0  0  0
    0.0940  -13.8630   10.4560 C   0  0  0  0  0  0  0  0  0  0  0  0
    0.4550  -12.9850    9.2650 C   0  0  0  0  0  0  0  0  0  0  0  0
    0.6980  -11.6990    9.5820 F   0  0  0  0  0  0  0  0  0  0  0  0
   -0.5610  -12.9900    8.3640 F   0  0  0  0  0  0  0  0  0  0  0  0
    1.5470  -13.4640    8.6220 F   0  0  0  0  0  0  0  0  0  0  0  0
  1 18  1  0
  2 10  1  1
  3  2  1  0
  4  3  1  0
  4  5  1  0
  5  1  1  6
  5  6  1  0
  6  7  1  0
  7  2  1  0
  8 11  1  0
  9  8  2  0
 10  8  1  0
 12 13  1  0
 13 17  1  0
 13 14  1  0
 14 15  2  0
 15 11  1  0
 16 15  1  0
 17 16  2  0
 19 18  1  0
 19 20  1  0
 20 21  1  0
 22 21  1  0
 23 22  1  0
 24 23  2  0
 25 26  2  0
 25 24  1  0
 26 27  1  0
 27 28  1  0
 27 22  2  0
 28 29  1  0
 29 19  1  0
 30 31  1  0
 30 25  1  0
 32 33  1  0
 32 31  1  0
 34 32  1  0
 35 32  1  0
M  END
$$$$
