lig_290
     RDKit          3D

 20 22  0  0  0  0  0  0  0  0999 V2000
    0.0780  -15.6000   12.0270 C   0  0  0  0  0  0  0  0  0  0  0  0
    1.3980  -15.9300   12.7420 C   0  0  0  0  0  0  0  0  0  0  0  0
    1.9930  -17.2250   12.3940 N   0  0  0  0  0  0  0  0  0  0  0  0
    2.0130  -18.1550   13.5210 C   0  0  0  0  0  0  0  0  0  0  0  0
    0.2330  -21.9310   12.4200 C   0  0  0  0  0  0  0  0  0  0  0  0
    0.7940  -21.7650   13.6850 C   0  0  0  0  0  0  0  0  0  0  0  0
    1.3680  -20.5430   14.0400 C   0  0  0  0  0  0  0  0  0  0  0  0
    1.3850  -19.4730   13.1330 C   0  0  0  0  0  0  0  0  0  0  0  0
    0.8250  -19.6550   11.8600 C   0  0  0  0  0  0  0  0  0  0  0  0
    0.2510  -20.8780   11.5080 C   0  0  0  0  0  0  0  0  0  0  0  0
    0.3890  -15.1360   10.7110 O   0  0  0  0  0  0  0  0  0  0  0  0
    0.0320  -13.8220   10.4400 C   0  0  0  0  0  0  0  0  0  0  0  0
   -0.8080  -13.2420   11.4060 C   0  0  0  0  0  0  0  0  0  0  0  0
   -1.2600  -11.9270   11.2820 C   0  0  0  0  0  0  0  0  0  0  0  0
   -0.8900  -11.1370   10.1910 C   0  0  0  0  0  0  0  0  0  0  0  0
   -0.0550  -11.7260    9.2380 C   0  0  0  0  0  0  0  0  0  0  0  0
    0.4830  -11.2420    8.0720 N   0  0  0  0  0  0  0  0  0  0  0  0
    1.2330  -12.2320    7.5090 C   0  0  0  0  0  0  0  0  0  0  0  0
    1.2140  -13.3240    8.2360 N   0  0  0  0  0  0  0  0  0  0  0  0
    0.4150  -13.0370    9.3270 C   0  0  0  0  0  0  0  0  0  0  0  0
  1  2  1  0
  3  2  1  0
  3  4  1  0
  5  6  2  0
  6  7  1  0
  8  4  1  0
  8  7  2  0
  9  8  1  0
 10  9  2  0
 10  5  1  0
 11  1  1  0
 12 11  1  0
 12 13  1  0
 14 13  2  0
 15 14  1  0
 16 20  1  0
 16 15  2  0
 17 16  1  0
 18 17  1  0
 18 19  2  0
 19 20  1  0
 20 12  2  0
M  END
$$$$
