lig_294
     RDKit          3D

 26 29  0  0  0  0  0  0  0  0999 V2000
   -3.3970    5.5740   16.6310 C   0  0  0  0  0  0  0  0  0  0  0  0
   -3.0260    6.8630   16.4560 N   0  0  0  0  0  0  0  0  0  0  0  0
   -1.8900    7.2900   17.0000 C   0  0  0  0  0  0  0  0  0  0  0  0
   -1.4690    8.6060   16.8500 N   0  0  0  0  0  0  0  0  0  0  0  0
   -2.1710    9.6080   16.2260 C   0  0  0  0  0  0  0  0  0  0  0  0
   -3.2970    9.5300   15.7500 O   0  0  0  0  0  0  0  0  0  0  0  0
   -1.0450    6.5420   17.7120 N   0  0  0  0  0  0  0  0  0  0  0  0
   -1.4090    5.2490   17.8820 C   0  0  0  0  0  0  0  0  0  0  0  0
   -0.6550    4.2800   18.6090 C   0  0  0  0  0  0  0  0  0  0  0  0
   -1.2650    3.0470   18.6260 C   0  0  0  0  0  0  0  0  0  0  0  0
   -2.7440    3.0570   17.7740 S   0  0  0  0  0  0  0  0  0  0  0  0
   -2.5810    4.7170   17.3550 C   0  0  0  0  0  0  0  0  0  0  0  0
   -1.4900   10.9250   16.1750 C   0  0  0  0  0  0  0  0  0  0  0  0
   -2.0330   12.0110   16.8630 C   0  0  0  0  0  0  0  0  0  0  0  0
   -1.3910   13.2460   16.8120 C   0  0  0  0  0  0  0  0  0  0  0  0
   -0.2280   13.3520   16.0660 C   0  0  0  0  0  0  0  0  0  0  0  0
    0.3160   12.3270   15.3750 N   0  0  0  0  0  0  0  0  0  0  0  0
   -0.3350   11.1390   15.4330 C   0  0  0  0  0  0  0  0  0  0  0  0
   -4.6450    5.1220   15.9810 C   0  0  0  0  0  0  0  0  0  0  0  0
   -4.6630    5.1060   14.7480 O   0  0  0  0  0  0  0  0  0  0  0  0
   -8.7300    2.5340   18.2050 C   0  0  0  0  0  0  0  0  0  0  0  0
   -7.7170    3.5560   17.8230 C   0  0  0  0  0  0  0  0  0  0  0  0
   -7.5710    4.8410   18.2980 C   0  0  0  0  0  0  0  0  0  0  0  0
   -6.4720    5.5150   17.6920 C   0  0  0  0  0  0  0  0  0  0  0  0
   -5.7930    4.7220   16.7830 C   0  0  0  0  0  0  0  0  0  0  0  0
   -6.5350    3.1840   16.6430 S   0  0  0  0  0  0  0  0  0  0  0  0
  1 12  2  0
  2  1  1  0
  2  3  2  0
  3  7  1  0
  4  3  1  0
  5  4  1  0
  6  5  2  0
  7  8  2  0
  8  9  1  0
  9 10  2  0
 11 10  1  0
 12 11  1  0
 12  8  1  0
 13  5  1  0
 13 14  2  0
 15 14  1  0
 16 15  2  0
 17 18  2  0
 17 16  1  0
 18 13  1  0
 19  1  1  0
 19 25  1  0
 20 19  2  0
 22 21  1  0
 22 23  2  0
 24 23  1  0
 25 24  2  0
 26 25  1  0
 26 22  1  0
M  END
$$$$
