lig_437
     RDKit          3D

 23 26  0  0  0  0  0  0  0  0999 V2000
   -3.3920    5.7830   17.2690 C   0  0  0  0  0  0  0  0  0  0  0  0
   -3.2740    7.0000   16.7610 N   0  0  0  0  0  0  0  0  0  0  0  0
   -1.9630    7.3710   16.9710 C   0  0  0  0  0  0  0  0  0  0  0  0
   -1.2570    8.5510   16.6700 C   0  0  0  0  0  0  0  0  0  0  0  0
    0.0650    8.5900   16.9840 N   0  0  0  0  0  0  0  0  0  0  0  0
    0.6240    7.5150   17.5780 C   0  0  0  0  0  0  0  0  0  0  0  0
    0.0440    6.3450   17.9100 N   0  0  0  0  0  0  0  0  0  0  0  0
   -1.2570    6.3470   17.5730 C   0  0  0  0  0  0  0  0  0  0  0  0
   -2.1690    5.3390   17.7400 N   0  0  0  0  0  0  0  0  0  0  0  0
   -1.8550    4.0310   18.2600 C   0  0  0  0  0  0  0  0  0  0  0  0
   -8.3400    2.7900   17.3820 C   0  0  0  0  0  0  0  0  0  0  0  0
   -7.0430    3.5440   17.3660 C   0  0  0  0  0  0  0  0  0  0  0  0
   -6.8600    4.6540   18.1980 C   0  0  0  0  0  0  0  0  0  0  0  0
   -5.6610    5.3730   18.1640 C   0  0  0  0  0  0  0  0  0  0  0  0
   -4.6360    5.0090   17.2830 C   0  0  0  0  0  0  0  0  0  0  0  0
   -4.8190    3.8960   16.4550 C   0  0  0  0  0  0  0  0  0  0  0  0
   -6.0180    3.1760   16.4880 C   0  0  0  0  0  0  0  0  0  0  0  0
   -1.8950    9.6470   16.0740 N   0  0  0  0  0  0  0  0  0  0  0  0
   -1.3530   10.9610   16.4080 C   0  0  0  0  0  0  0  0  0  0  0  0
   -2.4830   11.9270   16.8090 C   0  0  0  0  0  0  0  0  0  0  0  0
   -2.6530   12.9140   15.6530 C   0  0  0  0  0  0  0  0  0  0  0  0
   -1.9070   12.2960   14.4830 C   0  0  0  0  0  0  0  0  0  0  0  0
   -0.7370   11.5960   15.1550 C   0  0  0  0  0  0  0  0  0  0  0  0
  1 15  1  0
  1  9  1  0
  2  3  1  0
  2  1  2  0
  3  8  1  0
  4  3  2  0
  4  5  1  0
  5  6  2  0
  6  7  1  0
  8  9  1  0
  8  7  2  0
  9 10  1  0
 12 11  1  0
 12 13  1  0
 14 13  2  0
 15 14  1  0
 16 17  1  0
 16 15  2  0
 17 12  2  0
 18 19  1  0
 18  4  1  0
 19 20  1  0
 21 20  1  0
 22 23  1  0
 22 21  1  0
 23 19  1  0
M  END
$$$$
