lig_315
     RDKit          3D

 30 33  0  0  0  0  0  0  0  0999 V2000
   -2.5640    4.3100   17.2250 N   0  0  0  0  0  0  0  0  0  0  0  0
   -1.8490    5.5090   17.1120 C   0  0  0  0  0  0  0  0  0  0  0  0
   -0.6400    5.6240   17.2790 O   0  0  0  0  0  0  0  0  0  0  0  0
   -2.6740    6.6090   16.7740 C   0  0  0  0  0  0  0  0  0  0  0  0
   -2.3630    7.9180   16.5590 N   0  0  0  0  0  0  0  0  0  0  0  0
   -3.5360    8.5630   16.2480 C   0  0  0  0  0  0  0  0  0  0  0  0
   -4.5580    7.7260   16.2600 N   0  0  0  0  0  0  0  0  0  0  0  0
   -4.0150    6.5210   16.5870 C   0  0  0  0  0  0  0  0  0  0  0  0
   -4.6810    5.3260   16.7240 N   0  0  0  0  0  0  0  0  0  0  0  0
   -3.9550    4.1690   17.0280 C   0  0  0  0  0  0  0  0  0  0  0  0
   -4.5100    3.0690   17.1150 O   0  0  0  0  0  0  0  0  0  0  0  0
   -3.6530   10.0670   15.9250 C   0  0  0  0  0  0  0  0  0  0  0  0
   -4.7830   10.8870   16.0760 C   0  0  0  0  0  0  0  0  0  0  0  0
   -4.5450   12.1480   15.7010 N   0  0  0  0  0  0  0  0  0  0  0  0
   -3.2580   12.1230   15.2950 N   0  0  0  0  0  0  0  0  0  0  0  0
   -2.6720   10.8900   15.4270 C   0  0  0  0  0  0  0  0  0  0  0  0
   -2.6210   13.3440   14.8160 C   0  0  0  0  0  0  0  0  0  0  0  0
   -2.4610   14.3620   15.9180 C   0  0  0  0  0  0  0  0  0  0  0  0
   -2.1140   13.9610   17.2190 C   0  0  0  0  0  0  0  0  0  0  0  0
   -1.9680   14.9050   18.2400 C   0  0  0  0  0  0  0  0  0  0  0  0
   -2.1710   16.2570   17.9710 C   0  0  0  0  0  0  0  0  0  0  0  0
   -2.5190   16.6560   16.6870 C   0  0  0  0  0  0  0  0  0  0  0  0
   -2.7150   17.9560   16.4320 F   0  0  0  0  0  0  0  0  0  0  0  0
   -2.6670   15.7270   15.6630 C   0  0  0  0  0  0  0  0  0  0  0  0
   -1.7950    3.1110   17.5450 C   0  0  0  0  0  0  0  0  0  0  0  0
   -0.2230    2.2060   19.3420 C   0  0  0  0  0  0  0  0  0  0  0  0
   -1.5120    2.9580   19.0440 C   0  0  0  0  0  0  0  0  0  0  0  0
   -6.1170    5.2370   16.4770 C   0  0  0  0  0  0  0  0  0  0  0  0
   -6.9150    5.2180   17.7810 C   0  0  0  0  0  0  0  0  0  0  0  0
   -7.8450    4.0180   17.8460 C   0  0  0  0  0  0  0  0  0  0  0  0
  1 25  1  0
  2  1  1  0
  2  3  2  0
  4  2  1  0
  5  4  1  0
  6  7  2  0
  6  5  1  0
  7  8  1  0
  8  9  1  0
  8  4  2  0
  9 10  1  0
 10 11  2  0
 10  1  1  0
 12 13  1  0
 12  6  1  0
 14 13  2  0
 15 16  1  0
 15 14  1  0
 16 12  2  0
 17 15  1  0
 17 18  1  0
 18 19  2  0
 19 20  1  0
 21 20  2  0
 22 21  1  0
 23 22  1  0
 24 18  1  0
 24 22  2  0
 25 27  1  0
 27 26  1  0
 28  9  1  0
 28 29  1  0
 29 30  1  0
M  END
$$$$
