lig_324
     RDKit          3D

 37 41  0  0  0  0  0  0  0  0999 V2000
   -2.5570   11.2370   15.6900 C   0  0  0  0  0  0  0  0  0  0  0  0
   -3.3440   12.1240   16.4450 C   0  0  0  0  0  0  0  0  0  0  0  0
   -3.4130   13.4820   16.1200 C   0  0  0  0  0  0  0  0  0  0  0  0
   -2.6970   13.9590   15.0230 C   0  0  0  0  0  0  0  0  0  0  0  0
   -1.9100   13.0990   14.2550 C   0  0  0  0  0  0  0  0  0  0  0  0
   -1.8440   11.7410   14.5910 C   0  0  0  0  0  0  0  0  0  0  0  0
   -3.0380    5.4680   17.0320 N   0  0  0  0  0  0  0  0  0  0  0  0
   -1.6860    5.6250   17.3880 C   0  0  0  0  0  0  0  0  0  0  0  0
   -0.9980    4.7140   17.8480 O   0  0  0  0  0  0  0  0  0  0  0  0
   -1.1310    6.8710   17.2090 N   0  0  0  0  0  0  0  0  0  0  0  0
   -1.8700    7.9050   16.7380 C   0  0  0  0  0  0  0  0  0  0  0  0
   -1.4470    9.1700   16.5230 N   0  0  0  0  0  0  0  0  0  0  0  0
   -2.5160    9.8210   16.0740 C   0  0  0  0  0  0  0  0  0  0  0  0
   -3.5990    8.9600   16.0030 N   0  0  0  0  0  0  0  0  0  0  0  0
   -3.1790    7.7380   16.4320 C   0  0  0  0  0  0  0  0  0  0  0  0
   -3.8660    6.5030   16.5710 C   0  0  0  0  0  0  0  0  0  0  0  0
   -5.0600    6.3840   16.3150 O   0  0  0  0  0  0  0  0  0  0  0  0
   -3.6430    4.1560   17.2290 C   0  0  0  0  0  0  0  0  0  0  0  0
   -3.1070    1.8530   16.3580 C   0  0  0  0  0  0  0  0  0  0  0  0
   -3.4890    3.2770   15.9870 C   0  0  0  0  0  0  0  0  0  0  0  0
   -2.8020   15.6830   14.6080 S   0  0  0  0  0  0  0  0  0  0  0  0
   -3.0650   16.4000   15.8360 O   0  0  0  0  0  0  0  0  0  0  0  0
   -1.6750   16.0180   13.7610 O   0  0  0  0  0  0  0  0  0  0  0  0
   -4.2000   15.7470   13.6370 N   0  0  0  0  0  0  0  0  0  0  0  0
   -4.5310   14.4940   12.8820 C   0  0  0  0  0  0  0  0  0  0  0  0
   -4.2640   14.6430   11.3730 C   0  0  0  0  0  0  0  0  0  0  0  0
   -5.0130   15.7350   10.7190 N   0  0  0  0  0  0  0  0  0  0  0  0
   -5.3200   16.8240   11.6750 C   0  0  0  0  0  0  0  0  0  0  0  0
   -4.2590   16.9760   12.7790 C   0  0  0  0  0  0  0  0  0  0  0  0
   -6.2290   15.2390   10.0550 C   0  0  0  0  0  0  0  0  0  0  0  0
   -5.9740   14.0470    9.1560 C   0  0  0  0  0  0  0  0  0  0  0  0
   -6.4790   12.7790    9.4940 C   0  0  0  0  0  0  0  0  0  0  0  0
   -6.2510   11.6760    8.6660 C   0  0  0  0  0  0  0  0  0  0  0  0
   -5.5180   11.8300    7.4910 C   0  0  0  0  0  0  0  0  0  0  0  0
   -5.0190   13.0810    7.1560 C   0  0  0  0  0  0  0  0  0  0  0  0
   -4.3130   13.2290    6.0270 F   0  0  0  0  0  0  0  0  0  0  0  0
   -5.2390   14.1880    7.9720 C   0  0  0  0  0  0  0  0  0  0  0  0
  1 13  1  0
  1  2  1  0
  3  2  2  0
  4  3  1  0
  5  6  1  0
  5  4  2  0
  6  1  2  0
  7 18  1  0
  7  8  1  0
  8  9  2  0
 10  8  1  0
 11 10  1  0
 12 11  1  0
 13 12  2  0
 14 13  1  0
 14 15  1  0
 15 16  1  0
 15 11  2  0
 16  7  1  0
 17 16  2  0
 20 19  1  0
 20 18  1  0
 21  4  1  0
 21 22  2  0
 23 21  2  0
 24 21  1  0
 25 24  1  0
 26 25  1  0
 27 26  1  0
 27 28  1  0
 28 29  1  0
 29 24  1  0
 30 27  1  0
 31 32  2  0
 31 30  1  0
 33 32  1  0
 34 33  2  0
 35 34  1  0
 35 37  2  0
 36 35  1  0
 37 31  1  0
M  END
$$$$
