lig_253
     RDKit          3D

 29 33  0  0  0  0  0  0  0  0999 V2000
   -5.8970   15.8530   10.0860 O   0  0  0  0  0  0  0  0  0  0  0  0
   -5.3090   14.8110   10.3420 C   0  0  0  0  0  0  0  0  0  0  0  0
   -4.5890   14.5440   11.4940 N   0  0  0  0  0  0  0  0  0  0  0  0
   -4.2280   15.4410   12.4810 C   0  0  0  0  0  0  0  0  0  0  0  0
   -4.4840   16.7080   12.4630 N   0  0  0  0  0  0  0  0  0  0  0  0
   -4.0480   17.5020   13.5470 C   0  0  0  0  0  0  0  0  0  0  0  0
   -4.3380   18.8670   13.5180 C   0  0  0  0  0  0  0  0  0  0  0  0
   -3.9320   19.7020   14.5610 C   0  0  0  0  0  0  0  0  0  0  0  0
   -3.2320   19.1740   15.6440 C   0  0  0  0  0  0  0  0  0  0  0  0
   -2.9320   17.8100   15.6920 C   0  0  0  0  0  0  0  0  0  0  0  0
   -3.3380   16.9730   14.6490 C   0  0  0  0  0  0  0  0  0  0  0  0
   -3.0760   15.6000   14.6260 N   0  0  0  0  0  0  0  0  0  0  0  0
   -2.4190   14.7720   15.5070 C   0  0  0  0  0  0  0  0  0  0  0  0
   -1.8940   15.0810   16.5660 O   0  0  0  0  0  0  0  0  0  0  0  0
   -2.4910   13.4820   14.9020 N   0  0  0  0  0  0  0  0  0  0  0  0
   -3.1730   13.5510   13.6930 N   0  0  0  0  0  0  0  0  0  0  0  0
   -3.4770   14.8110   13.6110 C   0  0  0  0  0  0  0  0  0  0  0  0
   -1.9850   12.2450   15.3600 C   0  0  0  0  0  0  0  0  0  0  0  0
   -2.0230   11.8860   16.7120 C   0  0  0  0  0  0  0  0  0  0  0  0
   -1.5150   10.6550   17.1430 C   0  0  0  0  0  0  0  0  0  0  0  0
   -0.9630    9.7650   16.2270 C   0  0  0  0  0  0  0  0  0  0  0  0
   -0.9160   10.1040   14.8780 C   0  0  0  0  0  0  0  0  0  0  0  0
   -1.4230   11.3340   14.4500 C   0  0  0  0  0  0  0  0  0  0  0  0
   -5.4160   13.6690    9.3910 C   0  0  0  0  0  0  0  0  0  0  0  0
   -4.4670   13.5660    8.3660 C   0  0  0  0  0  0  0  0  0  0  0  0
   -4.5340   12.5140    7.4520 C   0  0  0  0  0  0  0  0  0  0  0  0
   -5.5420   11.5570    7.5640 C   0  0  0  0  0  0  0  0  0  0  0  0
   -6.4790   11.6430    8.5950 C   0  0  0  0  0  0  0  0  0  0  0  0
   -6.4160   12.6950    9.5120 C   0  0  0  0  0  0  0  0  0  0  0  0
  1  2  2  0
  2  3  1  0
  3  4  1  0
  4 17  2  0
  5  4  1  0
  5  6  2  0
  6 11  1  0
  7  6  1  0
  7  8  1  0
  8  9  2  0
  9 10  1  0
 11 10  2  0
 12 11  1  0
 12 13  1  0
 13 14  2  0
 15 18  1  0
 15 13  1  0
 16 15  1  0
 17 16  1  0
 17 12  1  0
 18 19  2  0
 19 20  1  0
 21 20  2  0
 22 21  1  0
 23 22  2  0
 23 18  1  0
 24 29  1  0
 24  2  1  0
 25 24  2  0
 26 27  2  0
 26 25  1  0
 27 28  1  0
 28 29  2  0
M  END
$$$$
