lig_020
     RDKit          3D

 38 42  0  0  1  0  0  0  0  0999 V2000
    0.7030  -18.5160   12.3480 C   0  0  1  0  0  0  0  0  0  0  0  0
    0.5850  -18.8150   13.8490 C   0  0  0  0  0  0  0  0  0  0  0  0
    1.1990  -20.1690   14.2040 C   0  0  0  0  0  0  0  0  0  0  0  0
    0.5790  -21.3010   13.3710 C   0  0  1  0  0  0  0  0  0  0  0  0
    0.7190  -21.0020   11.8700 C   0  0  0  0  0  0  0  0  0  0  0  0
    0.1030  -19.6510   11.5130 C   0  0  0  0  0  0  0  0  0  0  0  0
    0.6460  -16.0430   12.3090 C   0  0  0  0  0  0  0  0  0  0  0  0
    1.8050  -15.9360   12.7020 O   0  0  0  0  0  0  0  0  0  0  0  0
    0.0510  -17.2560   12.0220 N   0  0  0  0  0  0  0  0  0  0  0  0
   -0.2300  -14.8300   12.0460 C   0  0  0  0  0  0  0  0  0  0  0  0
   -2.3770   -9.9320   10.2640 C   0  0  0  0  0  0  0  0  0  0  0  0
   -1.4840  -11.0500   10.0700 N   0  0  0  0  0  0  0  0  0  0  0  0
   -1.3190  -12.1160   10.9090 C   0  0  0  0  0  0  0  0  0  0  0  0
   -0.3910  -12.9090   10.2880 C   0  0  0  0  0  0  0  0  0  0  0  0
    0.1050  -14.1290   10.7610 C   0  0  0  0  0  0  0  0  0  0  0  0
    1.0610  -14.6540    9.8510 C   0  0  0  0  0  0  0  0  0  0  0  0
    1.4480  -14.0210    8.6290 C   0  0  0  0  0  0  0  0  0  0  0  0
    0.9200  -12.7900    8.1880 C   0  0  0  0  0  0  0  0  0  0  0  0
   -0.0260  -12.2350    9.0640 C   0  0  0  0  0  0  0  0  0  0  0  0
   -0.7130  -11.0850    8.9670 N   0  0  0  0  0  0  0  0  0  0  0  0
    1.1200  -22.6940   13.7560 C   0  0  0  0  0  0  0  0  0  0  0  0
    0.4550  -23.3500   14.9780 C   0  0  0  0  0  0  0  0  0  0  0  0
   -0.8850  -23.8820   14.6850 N   0  0  0  0  0  0  0  0  0  0  0  0
   -1.8910  -22.8180   14.5010 C   0  0  0  0  0  0  0  0  0  0  0  0
   -2.1630  -21.8720   15.6810 C   0  0  0  0  0  0  0  0  0  0  0  0
   -2.8590  -22.5220   16.8300 C   0  0  0  0  0  0  0  0  0  0  0  0
   -3.9420  -21.8710   17.3990 N   0  0  0  0  0  0  0  0  0  0  0  0
   -4.4310  -22.5650   18.3990 C   0  0  0  0  0  0  0  0  0  0  0  0
   -3.6090  -24.0400   18.7160 S   0  0  0  0  0  0  0  0  0  0  0  0
   -2.5330  -23.7270   17.4220 C   0  0  0  0  0  0  0  0  0  0  0  0
   -1.4360  -24.6800   17.0760 C   0  0  0  0  0  0  0  0  0  0  0  0
   -1.3490  -24.9650   15.5670 C   0  0  0  0  0  0  0  0  0  0  0  0
   -5.4840  -22.0750   19.0580 O   0  0  0  0  0  0  0  0  0  0  0  0
   -5.5550  -20.6630   19.2530 C   0  0  0  0  0  0  0  0  0  0  0  0
   -6.6810  -20.0710   18.4240 C   0  0  0  0  0  0  0  0  0  0  0  0
   -7.0990  -20.9230   17.4630 F   0  0  0  0  0  0  0  0  0  0  0  0
   -7.7480  -19.7990   19.2130 F   0  0  0  0  0  0  0  0  0  0  0  0
   -6.3150  -18.9130   17.8330 F   0  0  0  0  0  0  0  0  0  0  0  0
  1  9  1  1
  1  2  1  0
  2  3  1  0
  4 21  1  6
  4  3  1  0
  5  4  1  0
  6  5  1  0
  6  1  1  0
  7  8  2  0
  9  7  1  0
 10  7  1  0
 12 11  1  0
 12 13  1  0
 14 15  1  0
 14 13  2  0
 15 10  1  0
 16 15  2  0
 17 16  1  0
 18 17  2  0
 18 19  1  0
 19 14  1  0
 20 19  2  0
 20 12  1  0
 21 22  1  0
 23 22  1  0
 23 32  1  0
 24 23  1  0
 24 25  1  0
 25 26  1  0
 26 27  1  0
 26 30  2  0
 27 28  2  0
 28 29  1  0
 28 33  1  0
 30 29  1  0
 31 30  1  0
 32 31  1  0
 33 34  1  0
 35 37  1  0
 35 34  1  0
 36 35  1  0
 38 35  1  0
M  END
$$$$
