lig_404
     RDKit          3D

 31 34  0  0  0  0  0  0  0  0999 V2000
   -1.4010    4.4870   18.5660 N   0  0  0  0  0  0  0  0  0  0  0  0
   -0.4700    5.5030   18.2720 C   0  0  0  0  0  0  0  0  0  0  0  0
    0.7050    5.4820   18.6330 O   0  0  0  0  0  0  0  0  0  0  0  0
   -1.0350    6.5860   17.5010 C   0  0  0  0  0  0  0  0  0  0  0  0
   -0.4300    7.7330   17.0440 N   0  0  0  0  0  0  0  0  0  0  0  0
   -1.3760    8.3880   16.3990 C   0  0  0  0  0  0  0  0  0  0  0  0
   -2.5660    7.6980   16.4270 N   0  0  0  0  0  0  0  0  0  0  0  0
   -2.3490    6.5520   17.1310 C   0  0  0  0  0  0  0  0  0  0  0  0
   -3.2430    5.5470   17.4280 N   0  0  0  0  0  0  0  0  0  0  0  0
   -2.7600    4.4610   18.1850 C   0  0  0  0  0  0  0  0  0  0  0  0
   -3.5040    3.5290   18.5040 O   0  0  0  0  0  0  0  0  0  0  0  0
   -1.1680    9.7520   15.7080 C   0  0  0  0  0  0  0  0  0  0  0  0
   -1.7440   10.1970   14.5060 C   0  0  0  0  0  0  0  0  0  0  0  0
   -1.3470   11.4330   14.1840 N   0  0  0  0  0  0  0  0  0  0  0  0
   -0.5080   11.7680   15.1880 N   0  0  0  0  0  0  0  0  0  0  0  0
   -0.3780   10.7900   16.1390 C   0  0  0  0  0  0  0  0  0  0  0  0
    0.1360   13.0740   15.1900 C   0  0  0  0  0  0  0  0  0  0  0  0
   -0.4190   13.9490   16.2800 C   0  0  0  0  0  0  0  0  0  0  0  0
   -1.7580   13.8400   16.6830 C   0  0  0  0  0  0  0  0  0  0  0  0
   -2.2680   14.6730   17.6820 C   0  0  0  0  0  0  0  0  0  0  0  0
   -1.4480   15.6310   18.2820 C   0  0  0  0  0  0  0  0  0  0  0  0
   -0.1200   15.7560   17.8780 C   0  0  0  0  0  0  0  0  0  0  0  0
    0.8820   16.9480   18.6130 Cl  0  0  0  0  0  0  0  0  0  0  0  0
    0.3870   14.9210   16.8820 C   0  0  0  0  0  0  0  0  0  0  0  0
    1.6620   15.0470   16.4820 F   0  0  0  0  0  0  0  0  0  0  0  0
   -0.9010    3.3650   19.3570 C   0  0  0  0  0  0  0  0  0  0  0  0
    1.0620    1.7530   19.0940 C   0  0  0  0  0  0  0  0  0  0  0  0
   -0.2420    2.2710   18.5070 C   0  0  0  0  0  0  0  0  0  0  0  0
   -4.6500    5.5670   17.0280 C   0  0  0  0  0  0  0  0  0  0  0  0
   -4.8640    5.2290   15.5490 C   0  0  0  0  0  0  0  0  0  0  0  0
   -5.5150    6.3560   14.7620 C   0  0  0  0  0  0  0  0  0  0  0  0
  1 26  1  0
  2  1  1  0
  2  3  2  0
  4  2  1  0
  5  4  1  0
  6  7  1  0
  6  5  2  0
  7  8  1  0
  8  9  1  0
  8  4  2  0
  9 10  1  0
 10 11  2  0
 10  1  1  0
 12 16  2  0
 12  6  1  0
 13 12  1  0
 14 13  2  0
 14 15  1  0
 15 17  1  0
 15 16  1  0
 17 18  1  0
 18 19  2  0
 18 24  1  0
 19 20  1  0
 20 21  2  0
 22 21  1  0
 22 23  1  0
 24 22  2  0
 25 24  1  0
 28 27  1  0
 28 26  1  0
 29  9  1  0
 30 29  1  0
 31 30  1  0
M  END
$$$$
