lig_038
     RDKit          3D

 27 29  0  0  0  0  0  0  0  0999 V2000
   22.5750   16.5270    8.8060 N   0  0  0  0  0  0  0  0  0  0  0  0
   21.7340   17.5380    8.1140 C   0  0  0  0  0  0  0  0  0  0  0  0
   20.8210   18.2980    9.1050 C   0  0  0  0  0  0  0  0  0  0  0  0
   19.9100   17.4080    9.8490 N   0  0  0  0  0  0  0  0  0  0  0  0
   20.5460   16.1250   10.2070 C   0  0  0  0  0  0  0  0  0  0  0  0
   22.0890   16.1330   10.1430 C   0  0  0  0  0  0  0  0  0  0  0  0
   24.5190   13.5700    7.6430 C   0  0  0  0  0  0  0  0  0  0  0  0
   24.2750   13.5900    6.2730 C   0  0  0  0  0  0  0  0  0  0  0  0
   23.4620   14.5840    5.7330 C   0  0  0  0  0  0  0  0  0  0  0  0
   22.8910   15.5610    6.5560 C   0  0  0  0  0  0  0  0  0  0  0  0
   23.1180   15.5720    7.9390 C   0  0  0  0  0  0  0  0  0  0  0  0
   23.9420   14.5550    8.4550 C   0  0  0  0  0  0  0  0  0  0  0  0
   25.4880   12.8790    9.7010 C   0  0  0  0  0  0  0  0  0  0  0  0
   25.2910   12.6580    8.3100 O   0  0  0  0  0  0  0  0  0  0  0  0
   19.1990   18.0710   10.9450 C   0  0  0  0  0  0  0  0  0  0  0  0
   19.0090   19.5910   10.8090 C   0  0  0  0  0  0  0  0  0  0  0  0
   19.3850   20.3570   12.0820 C   0  0  0  0  0  0  0  0  0  0  0  0
   20.7700   21.0050   12.0140 C   0  0  0  0  0  0  0  0  0  0  0  0
   21.7470   20.2560   12.8040 N   0  0  0  0  0  0  0  0  0  0  0  0
   22.4290   19.2740   12.1270 N   0  0  0  0  0  0  0  0  0  0  0  0
   23.3340   18.6260   12.7800 C   0  0  0  0  0  0  0  0  0  0  0  0
   23.6710   18.8940   14.2070 C   0  0  0  0  0  0  0  0  0  0  0  0
   24.5640   18.2260   14.7110 O   0  0  0  0  0  0  0  0  0  0  0  0
   22.9360   19.8850   14.8110 N   0  0  0  0  0  0  0  0  0  0  0  0
   23.2080   20.2270   16.1900 C   0  0  0  0  0  0  0  0  0  0  0  0
   21.9830   20.6260   14.1310 C   0  0  0  0  0  0  0  0  0  0  0  0
   21.3830   21.5600   14.6690 O   0  0  0  0  0  0  0  0  0  0  0  0
  1  6  1  0
  2  1  1  0
  2  3  1  0
  3  4  1  0
  4  5  1  0
  4 15  1  0
  6  5  1  0
  7 14  1  0
  7 12  2  0
  8  7  1  0
  9  8  2  0
  9 10  1  0
 10 11  2  0
 11 12  1  0
 11  1  1  0
 14 13  1  0
 16 15  1  0
 16 17  1  0
 18 17  1  0
 18 19  1  0
 19 26  1  0
 20 21  2  0
 20 19  1  0
 21 22  1  0
 22 23  2  0
 22 24  1  0
 24 25  1  0
 26 27  2  0
 26 24  1  0
M  END
$$$$
