lig_085
     RDKit          3D

 28 32  0  0  0  0  0  0  0  0999 V2000
   20.3170   16.8480   10.1380 C   0  0  0  0  0  0  0  0  0  0  0  0
   19.2590   16.1470    9.6840 N   0  0  0  0  0  0  0  0  0  0  0  0
   18.2300   16.9960    9.8340 N   0  0  0  0  0  0  0  0  0  0  0  0
   18.5710   18.2000   10.3830 C   0  0  0  0  0  0  0  0  0  0  0  0
   17.8040   19.3150   10.7150 C   0  0  0  0  0  0  0  0  0  0  0  0
   18.4800   20.4150   11.2690 C   0  0  0  0  0  0  0  0  0  0  0  0
   19.8670   20.4360   11.4840 C   0  0  0  0  0  0  0  0  0  0  0  0
   20.5870   19.2760   11.1360 C   0  0  0  0  0  0  0  0  0  0  0  0
   19.9430   18.1470   10.5840 C   0  0  0  0  0  0  0  0  0  0  0  0
   20.5130   21.5370   12.0320 N   0  0  0  0  0  0  0  0  0  0  0  0
   21.5800   21.3920   13.0360 C   0  0  0  0  0  0  0  0  0  0  0  0
   22.4290   22.6810   13.1070 C   0  0  0  0  0  0  0  0  0  0  0  0
   21.6870   23.9140   13.4350 N   0  0  0  0  0  0  0  0  0  0  0  0
   20.2550   23.7770   13.1130 C   0  0  0  0  0  0  0  0  0  0  0  0
   19.9270   22.8840   11.8940 C   0  0  0  0  0  0  0  0  0  0  0  0
   21.7990   14.8980   10.7840 O   0  0  0  0  0  0  0  0  0  0  0  0
   21.9510   16.2240   10.2090 S   0  0  0  0  0  0  0  0  0  0  0  0
   22.7780   17.2290   10.8480 O   0  0  0  0  0  0  0  0  0  0  0  0
   22.4710   16.0510    8.5130 C   0  0  0  0  0  0  0  0  0  0  0  0
   22.0950   17.0780    7.6310 C   0  0  0  0  0  0  0  0  0  0  0  0
   22.5040   17.0400    6.3050 C   0  0  0  0  0  0  0  0  0  0  0  0
   23.2870   15.9810    5.8560 C   0  0  0  0  0  0  0  0  0  0  0  0
   23.6600   14.9350    6.7160 C   0  0  0  0  0  0  0  0  0  0  0  0
   24.4420   13.8810    6.2150 C   0  0  0  0  0  0  0  0  0  0  0  0
   24.8220   12.8160    7.0280 C   0  0  0  0  0  0  0  0  0  0  0  0
   24.4170   12.7890    8.3520 C   0  0  0  0  0  0  0  0  0  0  0  0
   23.6410   13.8300    8.8670 C   0  0  0  0  0  0  0  0  0  0  0  0
   23.2470   14.9410    8.0740 C   0  0  0  0  0  0  0  0  0  0  0  0
  1 17  1  0
  1  9  1  0
  2  3  1  0
  2  1  2  0
  3  4  1  0
  4  9  2  0
  4  5  1  0
  5  6  2  0
  6  7  1  0
  7 10  1  0
  8  7  2  0
  9  8  1  0
 10 11  1  0
 11 12  1  0
 12 13  1  0
 14 13  1  0
 15 10  1  0
 15 14  1  0
 17 16  2  0
 17 18  2  0
 19 17  1  0
 20 19  2  0
 21 20  1  0
 22 21  2  0
 22 23  1  0
 23 28  1  0
 24 23  2  0
 24 25  1  0
 25 26  2  0
 26 27  1  0
 28 19  1  0
 28 27  2  0
M  END
$$$$
