lig_110
     RDKit          3D

 25 27  0  0  0  0  0  0  0  0999 V2000
  -33.6830    5.3060    8.7780 C   0  0  0  0  0  0  0  0  0  0  0  0
  -32.4760    5.1550    9.2950 N   0  0  0  0  0  0  0  0  0  0  0  0
  -31.6050    5.9720    8.6170 N   0  0  0  0  0  0  0  0  0  0  0  0
  -32.2870    6.5850    7.6810 C   0  0  0  0  0  0  0  0  0  0  0  0
  -33.5900    6.1760    7.7120 N   0  0  0  0  0  0  0  0  0  0  0  0
  -34.6380    6.5340    6.7910 C   0  0  0  0  0  0  0  0  0  0  0  0
  -37.2450    3.3810   10.1830 C   0  0  0  0  0  0  0  0  0  0  0  0
  -36.5710    2.8900    9.0580 C   0  0  0  0  0  0  0  0  0  0  0  0
  -35.4070    3.5110    8.5920 C   0  0  0  0  0  0  0  0  0  0  0  0
  -34.8920    4.6350    9.2470 C   0  0  0  0  0  0  0  0  0  0  0  0
  -35.5790    5.1380   10.3560 C   0  0  0  0  0  0  0  0  0  0  0  0
  -36.7420    4.5120   10.8250 C   0  0  0  0  0  0  0  0  0  0  0  0
  -39.9160    1.0410   11.4590 C   0  0  0  0  0  0  0  0  0  0  0  0
  -38.4940    1.4290   11.1340 C   0  0  0  0  0  0  0  0  0  0  0  0
  -37.5730    0.6460   11.3310 O   0  0  0  0  0  0  0  0  0  0  0  0
  -38.4100    2.6970   10.5870 N   0  0  0  0  0  0  0  0  0  0  0  0
  -31.6710    7.7490    6.5630 S   0  0  0  0  0  0  0  0  0  0  0  0
  -30.1060    8.1880    7.3790 C   0  0  0  0  0  0  0  0  0  0  0  0
  -29.5540    9.4850    6.8400 C   0  0  0  0  0  0  0  0  0  0  0  0
  -28.2160    9.5760    6.4310 C   0  0  0  0  0  0  0  0  0  0  0  0
  -27.7090   10.7730    5.9210 C   0  0  0  0  0  0  0  0  0  0  0  0
  -28.5330   11.8970    5.7960 C   0  0  0  0  0  0  0  0  0  0  0  0
  -27.9790   13.1920    5.2800 C   0  0  0  0  0  0  0  0  0  0  0  0
  -29.8660   11.8120    6.2110 C   0  0  0  0  0  0  0  0  0  0  0  0
  -30.3750   10.6150    6.7200 C   0  0  0  0  0  0  0  0  0  0  0  0
  1 10  1  0
  1  2  2  0
  3  2  1  0
  4  5  1  0
  4  3  2  0
  5  1  1  0
  6  5  1  0
  7 16  1  0
  7 12  2  0
  8  7  1  0
  9  8  2  0
  9 10  1  0
 10 11  2  0
 11 12  1  0
 14 15  2  0
 14 13  1  0
 16 14  1  0
 17 18  1  0
 17  4  1  0
 19 18  1  0
 20 19  1  0
 21 20  2  0
 22 21  1  0
 22 24  2  0
 23 22  1  0
 24 25  1  0
 25 19  2  0
M  END
$$$$
