lig_080
     RDKit          3D

 30 33  0  0  1  0  0  0  0  0999 V2000
    1.1270  -18.9990   13.1690 C   0  0  0  0  0  0  0  0  0  0  0  0
    0.1980  -17.8640   13.2420 N   0  0  0  0  0  0  0  0  0  0  0  0
   -0.6000  -17.6580   12.0270 C   0  0  0  0  0  0  0  0  0  0  0  0
    0.1880  -17.0970   10.8420 C   0  0  0  0  0  0  0  0  0  0  0  0
    1.0180  -15.8530   11.1920 C   0  0  0  0  0  0  0  0  0  0  0  0
    1.7530  -16.0180   12.5300 C   0  0  0  0  0  0  0  0  0  0  0  0
    0.8740  -16.6180   13.6300 C   0  0  0  0  0  0  0  0  0  0  0  0
    0.2340  -14.5660   11.1010 C   0  0  0  0  0  0  0  0  0  0  0  0
   -0.6720  -14.0430   12.0060 C   0  0  0  0  0  0  0  0  0  0  0  0
   -1.1760  -12.8600   11.5750 O   0  0  0  0  0  0  0  0  0  0  0  0
   -0.6000  -12.5950   10.3740 C   0  0  0  0  0  0  0  0  0  0  0  0
   -0.8470  -11.4690    9.5930 C   0  0  0  0  0  0  0  0  0  0  0  0
   -0.1500  -11.3800    8.3850 C   0  0  0  0  0  0  0  0  0  0  0  0
    0.7460  -12.3780    7.9960 C   0  0  0  0  0  0  0  0  0  0  0  0
    0.9720  -13.5010    8.8050 C   0  0  0  0  0  0  0  0  0  0  0  0
    0.2810  -13.6130   10.0290 C   0  0  0  0  0  0  0  0  0  0  0  0
    0.8540  -19.9990   12.0290 C   0  0  0  0  0  0  0  0  0  0  0  0
   -0.4530  -22.6360   15.0830 C   0  0  1  0  0  0  0  0  0  0  0  0
    0.8970  -23.0260   14.4570 C   0  0  0  0  0  0  0  0  0  0  0  0
    1.5040  -21.8730   13.6660 C   0  0  0  0  0  0  0  0  0  0  0  0
    0.6190  -21.4620   12.4730 C   0  0  1  0  0  0  0  0  0  0  0  0
   -0.8800  -21.7040   12.7650 C   0  0  0  0  0  0  0  0  0  0  0  0
   -1.2050  -21.5860   14.2500 C   0  0  0  0  0  0  0  0  0  0  0  0
   -1.3390  -24.4760   16.4880 C   0  0  0  0  0  0  0  0  0  0  0  0
   -0.8130  -24.0540   17.5120 O   0  0  0  0  0  0  0  0  0  0  0  0
   -1.2780  -23.8240   15.2730 N   0  0  0  0  0  0  0  0  0  0  0  0
   -2.1520  -25.7490   16.4300 C   0  0  0  0  0  0  0  0  0  0  0  0
   -3.6200  -25.4870   16.7320 C   0  0  0  0  0  0  0  0  0  0  0  0
   -4.7660  -23.4940   17.3310 C   0  0  0  0  0  0  0  0  0  0  0  0
   -3.9850  -24.1580   16.3480 O   0  0  0  0  0  0  0  0  0  0  0  0
  1  2  1  0
  2  7  1  0
  3  2  1  0
  4  5  1  0
  4  3  1  0
  5  8  1  0
  5  6  1  0
  6  7  1  0
  8  9  2  0
 10  9  1  0
 11 10  1  0
 12 11  2  0
 13 12  1  0
 14 13  2  0
 14 15  1  0
 15 16  2  0
 16 11  1  0
 16  8  1  0
 17  1  1  0
 18 26  1  6
 19 18  1  0
 20 19  1  0
 21 17  1  1
 21 22  1  0
 21 20  1  0
 22 23  1  0
 23 18  1  0
 24 25  2  0
 26 24  1  0
 27 24  1  0
 27 28  1  0
 30 28  1  0
 30 29  1  0
M  END
$$$$
