lig_132
     RDKit          3D

 38 43  0  0  1  0  0  0  0  0999 V2000
   -0.1850  -21.1940   14.1220 C   0  0  1  0  0  0  0  0  0  0  0  0
   -1.4310  -21.9260   13.6180 C   0  0  0  0  0  0  0  0  0  0  0  0
   -1.7870  -23.1280   14.4970 C   0  0  0  0  0  0  0  0  0  0  0  0
   -0.5670  -23.9080   15.0390 C   0  0  1  0  0  0  0  0  0  0  0  0
    0.6810  -23.6080   14.1980 C   0  0  0  0  0  0  0  0  0  0  0  0
    1.0400  -22.1230   14.1610 C   0  0  0  0  0  0  0  0  0  0  0  0
    0.8060  -18.7230   15.0710 O   0  0  0  0  0  0  0  0  0  0  0  0
    0.5370  -18.8400   13.8800 C   0  0  0  0  0  0  0  0  0  0  0  0
    0.0950  -20.0170   13.3080 N   0  0  0  0  0  0  0  0  0  0  0  0
    0.6510  -17.6690   12.9810 C   0  0  0  0  0  0  0  0  0  0  0  0
    1.5980  -16.6620   13.1420 C   0  0  0  0  0  0  0  0  0  0  0  0
    1.6190  -15.5970   12.2370 C   0  0  0  0  0  0  0  0  0  0  0  0
    0.6920  -15.5400   11.1920 C   0  0  0  0  0  0  0  0  0  0  0  0
   -0.2230  -16.5210   11.0340 N   0  0  0  0  0  0  0  0  0  0  0  0
   -0.2380  -17.5450   11.9260 C   0  0  0  0  0  0  0  0  0  0  0  0
    0.7450  -14.4710   10.2780 N   0  0  0  0  0  0  0  0  0  0  0  0
    0.6030  -14.9140    8.8700 C   0  0  0  0  0  0  0  0  0  0  0  0
    0.7460  -13.7050    7.9320 C   0  0  0  0  0  0  0  0  0  0  0  0
   -0.2190  -12.6860    8.2380 O   0  0  0  0  0  0  0  0  0  0  0  0
   -0.0550  -12.2390    9.5920 C   0  0  0  0  0  0  0  0  0  0  0  0
   -0.2170  -13.3930   10.5970 C   0  0  0  0  0  0  0  0  0  0  0  0
   -0.3780  -23.6360   16.5510 C   0  0  0  0  0  0  0  0  0  0  0  0
   -1.6630  -23.3180   17.3350 C   0  0  0  0  0  0  0  0  0  0  0  0
   -1.4920  -22.3380   18.4170 N   0  0  0  0  0  0  0  0  0  0  0  0
   -0.9170  -21.0760   17.9300 C   0  0  0  0  0  0  0  0  0  0  0  0
   -1.8880  -20.2220   17.1110 C   0  0  0  0  0  0  0  0  0  0  0  0
   -3.2330  -19.9880   17.8140 C   0  0  0  0  0  0  0  0  0  0  0  0
   -3.7750  -21.2780   18.4490 C   0  0  0  0  0  0  0  0  0  0  0  0
   -2.7090  -22.0800   19.1970 C   0  0  0  0  0  0  0  0  0  0  0  0
   -3.2110  -18.8190   18.7660 C   0  0  0  0  0  0  0  0  0  0  0  0
   -2.8230  -18.7960   20.0940 C   0  0  0  0  0  0  0  0  0  0  0  0
   -2.9410  -17.5540   20.6250 O   0  0  0  0  0  0  0  0  0  0  0  0
   -3.4120  -16.7440   19.6420 C   0  0  0  0  0  0  0  0  0  0  0  0
   -3.6750  -15.3820   19.7760 C   0  0  0  0  0  0  0  0  0  0  0  0
   -4.1570  -14.7240   18.6420 C   0  0  0  0  0  0  0  0  0  0  0  0
   -4.3610  -15.4100   17.4430 C   0  0  0  0  0  0  0  0  0  0  0  0
   -4.0860  -16.7820   17.3410 C   0  0  0  0  0  0  0  0  0  0  0  0
   -3.5980  -17.4680   18.4700 C   0  0  0  0  0  0  0  0  0  0  0  0
  1  9  1  6
  1  6  1  0
  2  1  1  0
  2  3  1  0
  3  4  1  0
  4 22  1  1
  5  4  1  0
  6  5  1  0
  8  7  2  0
  9  8  1  0
 10 11  1  0
 10  8  1  0
 12 11  2  0
 13 12  1  0
 14 13  2  0
 14 15  1  0
 15 10  2  0
 16 21  1  0
 16 13  1  0
 17 16  1  0
 18 19  1  0
 18 17  1  0
 19 20  1  0
 20 21  1  0
 22 23  1  0
 23 24  1  0
 24 29  1  0
 25 24  1  0
 26 27  1  0
 26 25  1  0
 27 28  1  0
 27 30  1  0
 28 29  1  0
 30 31  2  0
 31 32  1  0
 33 34  2  0
 33 32  1  0
 35 34  1  0
 36 35  2  0
 37 36  1  0
 37 38  2  0
 38 30  1  0
 38 33  1  0
M  END
$$$$
