lig_252
     RDKit          3D

 35 39  0  0  0  0  0  0  0  0999 V2000
    0.0520  -23.0350   13.2170 N   0  0  0  0  0  0  0  0  0  0  0  0
    0.7480  -22.4040   14.3560 C   0  0  0  0  0  0  0  0  0  0  0  0
   -0.1790  -21.7550   15.4140 C   0  0  0  0  0  0  0  0  0  0  0  0
   -1.1930  -22.6950   15.9490 N   0  0  0  0  0  0  0  0  0  0  0  0
   -1.9210  -23.3000   14.8070 C   0  0  0  0  0  0  0  0  0  0  0  0
   -0.9740  -23.9460   13.7680 C   0  0  0  0  0  0  0  0  0  0  0  0
   -0.5390  -22.0670   12.2810 C   0  0  0  0  0  0  0  0  0  0  0  0
    0.4560  -20.9690   11.8810 C   0  0  0  0  0  0  0  0  0  0  0  0
   -0.2740  -19.6900   11.4690 C   0  0  0  0  0  0  0  0  0  0  0  0
   -0.2630  -18.6590   12.5960 C   0  0  0  0  0  0  0  0  0  0  0  0
    1.6290  -16.6160   12.5530 O   0  0  0  0  0  0  0  0  0  0  0  0
    0.5180  -16.3650   12.0910 C   0  0  0  0  0  0  0  0  0  0  0  0
   -0.4870  -17.3170   12.0970 N   0  0  0  0  0  0  0  0  0  0  0  0
    0.1510  -15.0890   11.4860 C   0  0  0  0  0  0  0  0  0  0  0  0
   -0.6210  -14.0550   11.9790 C   0  0  0  0  0  0  0  0  0  0  0  0
   -0.7560  -12.9550   11.0660 C   0  0  0  0  0  0  0  0  0  0  0  0
   -1.4560  -11.7310   11.1960 C   0  0  0  0  0  0  0  0  0  0  0  0
   -1.4440  -10.7960   10.1570 C   0  0  0  0  0  0  0  0  0  0  0  0
   -0.7440  -11.0570    8.9870 C   0  0  0  0  0  0  0  0  0  0  0  0
   -0.0420  -12.2540    8.8330 C   0  0  0  0  0  0  0  0  0  0  0  0
   -0.0560  -13.1930    9.8820 C   0  0  0  0  0  0  0  0  0  0  0  0
    0.7330  -14.7190    9.9200 S   0  0  0  0  0  0  0  0  0  0  0  0
   -2.1320  -22.0070   16.8880 C   0  0  0  0  0  0  0  0  0  0  0  0
   -3.2530  -22.9160   17.4130 C   0  0  0  0  0  0  0  0  0  0  0  0
   -2.9300  -24.0950   18.1070 C   0  0  0  0  0  0  0  0  0  0  0  0
   -3.9340  -24.9440   18.5780 C   0  0  0  0  0  0  0  0  0  0  0  0
   -5.2740  -24.6300   18.3580 C   0  0  0  0  0  0  0  0  0  0  0  0
   -5.6120  -23.4700   17.6650 C   0  0  0  0  0  0  0  0  0  0  0  0
   -4.6090  -22.6210   17.1930 C   0  0  0  0  0  0  0  0  0  0  0  0
   -1.4300  -21.3290   18.0730 C   0  0  0  0  0  0  0  0  0  0  0  0
   -0.2260  -21.8590   18.5710 C   0  0  0  0  0  0  0  0  0  0  0  0
    0.4360  -21.2470   19.6360 C   0  0  0  0  0  0  0  0  0  0  0  0
   -0.0900  -20.0950   20.2170 C   0  0  0  0  0  0  0  0  0  0  0  0
   -1.2770  -19.5510   19.7310 C   0  0  0  0  0  0  0  0  0  0  0  0
   -1.9400  -20.1610   18.6650 C   0  0  0  0  0  0  0  0  0  0  0  0
  1  6  1  0
  1  2  1  0
  2  3  1  0
  3  4  1  0
  4 23  1  0
  5  4  1  0
  6  5  1  0
  7  1  1  0
  8  7  1  0
  9  8  1  0
  9 10  1  0
 12 13  1  0
 12 11  2  0
 13 10  1  0
 14 15  2  0
 14 12  1  0
 16 17  2  0
 16 15  1  0
 18 17  1  0
 19 18  2  0
 20 19  1  0
 20 21  2  0
 21 22  1  0
 21 16  1  0
 22 14  1  0
 23 24  1  0
 23 30  1  0
 24 25  2  0
 25 26  1  0
 27 26  2  0
 28 27  1  0
 29 24  1  0
 29 28  2  0
 30 31  2  0
 30 35  1  0
 31 32  1  0
 32 33  2  0
 34 33  1  0
 35 34  2  0
M  END
$$$$
