lig_290
     RDKit          3D

 25 28  0  0  0  0  0  0  0  0999 V2000
    0.1130  -20.7330   12.7950 N   0  0  0  0  0  0  0  0  0  0  0  0
   -0.9160  -19.6930   12.9520 C   0  0  0  0  0  0  0  0  0  0  0  0
   -0.7190  -18.5590   11.9190 C   0  0  0  0  0  0  0  0  0  0  0  0
    0.6030  -17.8950   11.9350 N   0  0  0  0  0  0  0  0  0  0  0  0
    1.6510  -18.8200   12.4360 C   0  0  0  0  0  0  0  0  0  0  0  0
    1.3740  -20.3170   12.1630 C   0  0  0  0  0  0  0  0  0  0  0  0
    1.9080  -22.1340   14.5220 F   0  0  0  0  0  0  0  0  0  0  0  0
    0.7740  -22.7170   14.0980 C   0  0  0  0  0  0  0  0  0  0  0  0
    0.5410  -24.0250   14.5320 C   0  0  0  0  0  0  0  0  0  0  0  0
   -0.5960  -24.7040   14.1130 C   0  0  0  0  0  0  0  0  0  0  0  0
   -1.4910  -24.0660   13.2620 C   0  0  0  0  0  0  0  0  0  0  0  0
   -1.2450  -22.7540   12.8320 C   0  0  0  0  0  0  0  0  0  0  0  0
   -0.1050  -22.0330   13.2320 C   0  0  0  0  0  0  0  0  0  0  0  0
    0.5650  -16.6500   12.7170 C   0  0  0  0  0  0  0  0  0  0  0  0
    0.4430  -15.4710   11.8140 C   0  0  0  0  0  0  0  0  0  0  0  0
    1.1680  -15.2090   10.6370 C   0  0  0  0  0  0  0  0  0  0  0  0
    0.8240  -14.0580   10.0580 N   0  0  0  0  0  0  0  0  0  0  0  0
   -0.1480  -13.5450   10.8600 N   0  0  0  0  0  0  0  0  0  0  0  0
   -0.3880  -14.3740   11.9340 C   0  0  0  0  0  0  0  0  0  0  0  0
   -0.7750  -12.3050   10.5480 C   0  0  0  0  0  0  0  0  0  0  0  0
   -0.7100  -11.8090    9.2370 C   0  0  0  0  0  0  0  0  0  0  0  0
   -1.3180  -10.5960    8.9110 C   0  0  0  0  0  0  0  0  0  0  0  0
   -1.9950   -9.8690    9.8880 C   0  0  0  0  0  0  0  0  0  0  0  0
   -2.0660  -10.3560   11.1930 C   0  0  0  0  0  0  0  0  0  0  0  0
   -1.4590  -11.5700   11.5270 C   0  0  0  0  0  0  0  0  0  0  0  0
  1  2  1  0
  1 13  1  0
  3  4  1  0
  3  2  1  0
  4  5  1  0
  4 14  1  0
  6  5  1  0
  6  1  1  0
  8  7  1  0
  8  9  2  0
 10  9  1  0
 11 10  2  0
 12 13  2  0
 12 11  1  0
 13  8  1  0
 15 19  2  0
 15 14  1  0
 16 15  1  0
 17 16  2  0
 17 18  1  0
 18 19  1  0
 20 18  1  0
 20 25  1  0
 21 20  2  0
 22 21  1  0
 22 23  2  0
 23 24  1  0
 24 25  2  0
M  END
$$$$
