lig_011
     RDKit          3D

 19 20  0  0  0  0  0  0  0  0999 V2000
   21.6180   17.2730    9.8770 N   0  0  0  0  0  0  0  0  0  0  0  0
   22.1700   16.0280    9.7440 C   0  0  0  0  0  0  0  0  0  0  0  0
   22.5760   15.8640    8.4330 C   0  0  0  0  0  0  0  0  0  0  0  0
   22.2900   17.0980    7.7520 C   0  0  0  0  0  0  0  0  0  0  0  0
   22.4810   17.5810    6.4340 C   0  0  0  0  0  0  0  0  0  0  0  0
   22.0670   18.8720    6.0860 C   0  0  0  0  0  0  0  0  0  0  0  0
   21.4650   19.6940    7.0310 C   0  0  0  0  0  0  0  0  0  0  0  0
   21.2650   19.2530    8.3410 C   0  0  0  0  0  0  0  0  0  0  0  0
   21.6870   17.9570    8.6820 C   0  0  0  0  0  0  0  0  0  0  0  0
   23.0810   16.7910    5.4810 O   0  0  0  0  0  0  0  0  0  0  0  0
   21.0590   17.7850   11.1190 C   0  0  0  0  0  0  0  0  0  0  0  0
   19.6920   17.1730   11.4250 C   0  0  0  0  0  0  0  0  0  0  0  0
   18.2300   19.0460   10.4990 C   0  0  0  0  0  0  0  0  0  0  0  0
   18.6150   17.5770   10.4170 C   0  0  0  0  0  0  0  0  0  0  0  0
   23.2190   14.6350    7.8620 C   0  0  0  0  0  0  0  0  0  0  0  0
   24.7630   14.6280    7.9020 C   0  0  0  0  0  0  0  0  0  0  0  0
   25.4140   13.3330    8.1840 N   0  0  0  0  0  0  0  0  0  0  0  0
   24.7280   12.2560    7.4680 C   0  0  0  0  0  0  0  0  0  0  0  0
   25.4640   13.0370    9.6140 C   0  0  0  0  0  0  0  0  0  0  0  0
  1 11  1  0
  2  1  1  0
  3  2  2  0
  4  3  1  0
  4  9  1  0
  5  4  2  0
  6  5  1  0
  6  7  2  0
  7  8  1  0
  8  9  2  0
  9  1  1  0
 10  5  1  0
 11 12  1  0
 14 13  1  0
 14 12  1  0
 15 16  1  0
 15  3  1  0
 16 17  1  0
 17 19  1  0
 18 17  1  0
M  END
$$$$
