lig_129
     RDKit          3D

 28 31  0  0  1  0  0  0  0  0999 V2000
   20.7370   17.4500    9.0840 N   0  0  0  0  0  0  0  0  0  0  0  0
   19.6600   17.2460   10.0730 C   0  0  0  0  0  0  0  0  0  0  0  0
   19.9600   17.7790   11.5000 C   0  0  0  0  0  0  0  0  0  0  0  0
   20.9340   18.8830   11.5320 N   0  0  0  0  0  0  0  0  0  0  0  0
   20.8170   19.7130   10.3300 C   0  0  0  0  0  0  0  0  0  0  0  0
   21.0630   18.8950    9.0290 C   0  0  0  0  0  0  0  0  0  0  0  0
   21.9420   16.6610    9.4050 C   0  0  0  0  0  0  0  0  0  0  0  0
   25.0380   13.1440    7.5200 C   0  0  0  0  0  0  0  0  0  0  0  0
   24.0270   14.2290    7.3040 C   0  0  0  0  0  0  0  0  0  0  0  0
   23.5690   14.5290    6.0170 C   0  0  0  0  0  0  0  0  0  0  0  0
   22.6060   15.5200    5.8230 C   0  0  0  0  0  0  0  0  0  0  0  0
   22.0850   16.2150    6.9150 C   0  0  0  0  0  0  0  0  0  0  0  0
   22.5210   15.9230    8.2140 C   0  0  0  0  0  0  0  0  0  0  0  0
   23.4880   14.9210    8.3980 C   0  0  0  0  0  0  0  0  0  0  0  0
   20.9920   19.5930   12.8300 C   0  0  1  0  0  0  0  0  0  0  0  0
   22.1990   19.1810   13.7010 C   0  0  0  0  0  0  0  0  0  0  0  0
   23.4240   18.8330   13.0950 C   0  0  0  0  0  0  0  0  0  0  0  0
   24.5440   18.4970   13.8620 C   0  0  0  0  0  0  0  0  0  0  0  0
   24.4640   18.5270   15.2510 C   0  0  0  0  0  0  0  0  0  0  0  0
   25.8400   18.1150   16.1970 Cl  0  0  0  0  0  0  0  0  0  0  0  0
   23.2790   18.8970   15.8760 C   0  0  0  0  0  0  0  0  0  0  0  0
   22.1600   19.2320   15.1060 C   0  0  0  0  0  0  0  0  0  0  0  0
   20.7790   21.1100   12.7230 C   0  0  0  0  0  0  0  0  0  0  0  0
   19.4980   21.6220   12.4470 C   0  0  0  0  0  0  0  0  0  0  0  0
   19.2830   22.9970   12.3460 C   0  0  0  0  0  0  0  0  0  0  0  0
   20.3430   23.8840   12.5190 C   0  0  0  0  0  0  0  0  0  0  0  0
   21.6180   23.3980   12.7960 C   0  0  0  0  0  0  0  0  0  0  0  0
   21.8350   22.0230   12.8970 C   0  0  0  0  0  0  0  0  0  0  0  0
  1  7  1  0
  1  2  1  0
  2  3  1  0
  3  4  1  0
 15  4  1  6
  5  4  1  0
  6  1  1  0
  6  5  1  0
  9  8  1  0
  9 14  2  0
 10  9  1  0
 11 10  2  0
 11 12  1  0
 12 13  2  0
 13 14  1  0
 13  7  1  0
 15 23  1  0
 15 16  1  0
 16 22  2  0
 17 16  1  0
 17 18  2  0
 18 19  1  0
 19 21  2  0
 19 20  1  0
 22 21  1  0
 23 28  1  0
 24 23  2  0
 25 24  1  0
 25 26  2  0
 26 27  1  0
 27 28  2  0
M  END
$$$$
