lig_049
     RDKit          3D

 35 40  0  0  1  0  0  0  0  0999 V2000
   -1.2690    5.1510   17.8960 C   0  0  0  0  0  0  0  0  0  0  0  0
   -2.4900    5.6190   17.3990 C   0  0  0  0  0  0  0  0  0  0  0  0
   -2.5920    6.9090   16.8680 C   0  0  0  0  0  0  0  0  0  0  0  0
   -3.8550    7.3410   16.3750 N   0  0  0  0  0  0  0  0  0  0  0  0
   -3.9770    8.5500   15.8890 C   0  0  0  0  0  0  0  0  0  0  0  0
   -5.1780    9.0070   15.4090 N   0  0  0  0  0  0  0  0  0  0  0  0
   -2.8610    9.4040   15.8360 N   0  0  0  0  0  0  0  0  0  0  0  0
   -2.8680   10.6450   15.2980 N   0  0  0  0  0  0  0  0  0  0  0  0
   -1.5890   11.0090   15.4870 C   0  0  0  0  0  0  0  0  0  0  0  0
   -0.7860   10.0560   16.0790 N   0  0  0  0  0  0  0  0  0  0  0  0
   -1.6180    9.0570   16.2800 C   0  0  0  0  0  0  0  0  0  0  0  0
   -1.4450    7.7380   16.8430 C   0  0  0  0  0  0  0  0  0  0  0  0
   -0.2240    7.2820   17.3330 C   0  0  0  0  0  0  0  0  0  0  0  0
   -0.1500    5.9960   17.8540 C   0  0  0  0  0  0  0  0  0  0  0  0
    1.0320    5.5670   18.3240 F   0  0  0  0  0  0  0  0  0  0  0  0
   -1.0600   12.3380   15.0540 C   0  0  2  0  0  0  0  0  0  0  0  0
    0.3570   12.5830   15.5970 C   0  0  0  0  0  0  0  0  0  0  0  0
    0.6470   14.0620   15.8470 C   0  0  0  0  0  0  0  0  0  0  0  0
   -0.0740   14.9700   14.8540 C   0  0  0  0  0  0  0  0  0  0  0  0
   -1.5260   14.7690   14.9100 N   0  0  0  0  0  0  0  0  0  0  0  0
   -2.0090   13.4810   15.4430 C   0  0  0  0  0  0  0  0  0  0  0  0
   -2.3900   15.8010   14.6890 C   0  0  0  0  0  0  0  0  0  0  0  0
   -3.2200   15.9240   13.6000 C   0  0  0  0  0  0  0  0  0  0  0  0
   -3.9220   17.0800   13.7750 N   0  0  0  0  0  0  0  0  0  0  0  0
   -3.5970   17.7370   14.9010 N   0  0  0  0  0  0  0  0  0  0  0  0
   -2.6490   16.9710   15.4630 C   0  0  0  0  0  0  0  0  0  0  0  0
   -2.0140   17.4340   16.7210 C   0  0  0  0  0  0  0  0  0  0  0  0
   -4.9430   17.6180   12.8810 C   0  0  0  0  0  0  0  0  0  0  0  0
   -6.2400   17.9760   13.6220 C   0  0  0  0  0  0  0  0  0  0  0  0
   -7.2920   16.9050   13.3880 C   0  0  0  0  0  0  0  0  0  0  0  0
   -7.6360   16.7930   12.0050 O   0  0  0  0  0  0  0  0  0  0  0  0
   -6.5530   16.9490   11.0880 C   0  0  0  0  0  0  0  0  0  0  0  0
   -5.1920   16.6680   11.7020 C   0  0  0  0  0  0  0  0  0  0  0  0
   -2.1790    3.2350   18.9810 C   0  0  0  0  0  0  0  0  0  0  0  0
   -1.0540    3.9110   18.4350 O   0  0  0  0  0  0  0  0  0  0  0  0
  1 35  1  0
  2  1  2  0
  3  2  1  0
  4  3  1  0
  5  4  2  0
  6  5  1  0
  7  5  1  0
  7 11  1  0
  8  9  2  0
  8  7  1  0
  9 10  1  0
 10 11  2  0
 11 12  1  0
 12  3  2  0
 12 13  1  0
 13 14  2  0
 14  1  1  0
 14 15  1  0
 16 21  1  0
 16  9  1  1
 16 17  1  0
 17 18  1  0
 19 20  1  0
 19 18  1  0
 20 21  1  0
 22 20  1  0
 22 26  1  0
 23 24  1  0
 23 22  2  0
 24 25  1  0
 25 26  2  0
 26 27  1  0
 28 29  1  0
 28 24  1  0
 30 29  1  0
 31 30  1  0
 32 33  1  0
 32 31  1  0
 33 28  1  0
 35 34  1  0
M  END
$$$$
