lig_201
     RDKit          3D

 31 35  0  0  0  0  0  0  0  0999 V2000
   -4.4920   15.6210   13.4790 N   0  0  0  0  0  0  0  0  0  0  0  0
   -3.4840   16.3740   14.0350 C   0  0  0  0  0  0  0  0  0  0  0  0
   -2.7030   15.4620   14.6780 C   0  0  0  0  0  0  0  0  0  0  0  0
   -3.2960   14.2080   14.4760 C   0  0  0  0  0  0  0  0  0  0  0  0
   -2.7880   12.9930   14.9830 N   0  0  0  0  0  0  0  0  0  0  0  0
   -1.6960   13.0930   15.6860 C   0  0  0  0  0  0  0  0  0  0  0  0
   -1.0040   12.0500   16.2790 N   0  0  0  0  0  0  0  0  0  0  0  0
   -1.4140   10.7300   16.3840 C   0  0  0  0  0  0  0  0  0  0  0  0
   -2.5550   10.3510   16.1700 O   0  0  0  0  0  0  0  0  0  0  0  0
   -0.3610    9.9290   16.8040 N   0  0  0  0  0  0  0  0  0  0  0  0
   -1.0150   14.2990   15.9490 N   0  0  0  0  0  0  0  0  0  0  0  0
    0.1310   14.4190   16.6640 N   0  0  0  0  0  0  0  0  0  0  0  0
    0.3230   15.7550   16.5960 C   0  0  0  0  0  0  0  0  0  0  0  0
   -0.6280   16.4560   15.8770 N   0  0  0  0  0  0  0  0  0  0  0  0
   -1.4380   15.5080   15.4950 C   0  0  0  0  0  0  0  0  0  0  0  0
   -4.3970   14.2930   13.7410 N   0  0  0  0  0  0  0  0  0  0  0  0
   -0.4070    8.5570   17.1320 C   0  0  0  0  0  0  0  0  0  0  0  0
   -1.4830    7.7170   16.8290 C   0  0  0  0  0  0  0  0  0  0  0  0
   -1.4550    6.3690   17.1980 C   0  0  0  0  0  0  0  0  0  0  0  0
   -0.3540    5.8620   17.8750 C   0  0  0  0  0  0  0  0  0  0  0  0
   -0.3280    4.5720   18.2290 F   0  0  0  0  0  0  0  0  0  0  0  0
    0.7220    6.6800   18.1910 C   0  0  0  0  0  0  0  0  0  0  0  0
    0.6950    8.0270   17.8220 C   0  0  0  0  0  0  0  0  0  0  0  0
    1.5370   16.4690   17.2790 C   0  0  0  0  0  0  0  0  0  0  0  0
    2.4630   17.2770   16.6490 C   0  0  0  0  0  0  0  0  0  0  0  0
    3.3780   17.7050   17.6440 C   0  0  0  0  0  0  0  0  0  0  0  0
    2.9540   17.1320   18.8190 C   0  0  0  0  0  0  0  0  0  0  0  0
    1.8430   16.3830   18.6100 O   0  0  0  0  0  0  0  0  0  0  0  0
   -5.6050   16.1210   12.6930 C   0  0  0  0  0  0  0  0  0  0  0  0
   -7.4690   17.4550   13.8010 C   0  0  0  0  0  0  0  0  0  0  0  0
   -6.0970   17.4960   13.1430 C   0  0  0  0  0  0  0  0  0  0  0  0
  1 16  1  0
  1  2  1  0
  2  3  2  0
  3 15  1  0
  4  3  1  0
  4  5  1  0
  5  6  2  0
  6 11  1  0
  6  7  1  0
  7  8  1  0
  8 10  1  0
  9  8  2  0
 10 17  1  0
 11 12  1  0
 13 12  2  0
 13 24  1  0
 14 13  1  0
 15 14  2  0
 15 11  1  0
 16  4  2  0
 17 23  2  0
 18 17  1  0
 18 19  2  0
 19 20  1  0
 20 22  2  0
 20 21  1  0
 23 22  1  0
 24 28  1  0
 25 24  2  0
 25 26  1  0
 26 27  2  0
 28 27  1  0
 29 31  1  0
 29  1  1  0
 31 30  1  0
M  END
$$$$
