lig_433
     RDKit          3D

 20 23  0  0  0  0  0  0  0  0999 V2000
   -4.0870    4.8320   17.5340 C   0  0  0  0  0  0  0  0  0  0  0  0
   -3.3890    4.0190   18.3840 N   0  0  0  0  0  0  0  0  0  0  0  0
   -2.0800    4.3110   18.4520 C   0  0  0  0  0  0  0  0  0  0  0  0
   -1.1400    3.6560   19.1960 N   0  0  0  0  0  0  0  0  0  0  0  0
    0.1030    4.1680   19.0740 N   0  0  0  0  0  0  0  0  0  0  0  0
   -0.0660    5.1780   18.2110 C   0  0  0  0  0  0  0  0  0  0  0  0
   -1.4050    5.3190   17.7900 C   0  0  0  0  0  0  0  0  0  0  0  0
   -2.1510    6.1530   16.9510 C   0  0  0  0  0  0  0  0  0  0  0  0
   -3.5400    5.9240   16.8230 C   0  0  0  0  0  0  0  0  0  0  0  0
   -4.3170    6.8570   15.9890 C   0  0  0  0  0  0  0  0  0  0  0  0
   -4.2300    8.2320   16.1260 C   0  0  0  0  0  0  0  0  0  0  0  0
   -4.9860    8.9820   15.2540 C   0  0  0  0  0  0  0  0  0  0  0  0
   -5.7640    8.4490   14.2970 N   0  0  0  0  0  0  0  0  0  0  0  0
   -5.7660    7.1110   14.2330 C   0  0  0  0  0  0  0  0  0  0  0  0
   -5.0690    6.2810   15.0230 N   0  0  0  0  0  0  0  0  0  0  0  0
   -7.6970    4.0110   17.5850 C   0  0  0  0  0  0  0  0  0  0  0  0
   -7.0990    3.0640   16.7880 C   0  0  0  0  0  0  0  0  0  0  0  0
   -5.7630    3.2900   16.7040 O   0  0  0  0  0  0  0  0  0  0  0  0
   -5.4870    4.4050   17.4450 C   0  0  0  0  0  0  0  0  0  0  0  0
   -6.6570    4.8700   18.0190 C   0  0  0  0  0  0  0  0  0  0  0  0
  1  2  1  0
  2  3  2  0
  3  4  1  0
  5  4  1  0
  6  5  2  0
  7  6  1  0
  7  3  1  0
  8  7  2  0
  9  8  1  0
  9  1  2  0
 10 11  1  0
 10  9  1  0
 12 11  2  0
 13 12  1  0
 14 13  2  0
 14 15  1  0
 15 10  2  0
 16 20  1  0
 17 16  2  0
 18 17  1  0
 18 19  1  0
 19  1  1  0
 19 20  2  0
M  END
$$$$
