lig_290
     RDKit          3D

 25 27  0  0  0  0  0  0  0  0999 V2000
   -2.6790   13.3510   16.3540 C   0  0  0  0  0  0  0  0  0  0  0  0
   -3.9980   13.0520   16.3790 N   0  0  0  0  0  0  0  0  0  0  0  0
   -4.3450   11.7900   16.1630 C   0  0  0  0  0  0  0  0  0  0  0  0
   -5.6880   11.4860   16.1820 N   0  0  0  0  0  0  0  0  0  0  0  0
   -3.4880   10.7970   15.9850 N   0  0  0  0  0  0  0  0  0  0  0  0
   -2.1690   11.1270   15.9700 C   0  0  0  0  0  0  0  0  0  0  0  0
   -1.6840   12.4180   16.1180 C   0  0  0  0  0  0  0  0  0  0  0  0
   -0.2310   12.7640   16.0380 C   0  0  0  0  0  0  0  0  0  0  0  0
   -2.5560   17.9910   15.1460 C   0  0  0  0  0  0  0  0  0  0  0  0
   -2.3570   16.8800   16.0960 C   0  0  0  0  0  0  0  0  0  0  0  0
   -1.9210   16.8090   17.4000 C   0  0  0  0  0  0  0  0  0  0  0  0
   -1.9600   15.4400   17.7580 C   0  0  0  0  0  0  0  0  0  0  0  0
   -2.4160   14.7540   16.6490 C   0  0  0  0  0  0  0  0  0  0  0  0
   -2.6590   15.6350   15.6340 O   0  0  0  0  0  0  0  0  0  0  0  0
   -1.2620    9.9280   15.7920 C   0  0  0  0  0  0  0  0  0  0  0  0
   -0.7560    9.6250   14.7200 O   0  0  0  0  0  0  0  0  0  0  0  0
   -1.0430    9.2160   16.9490 N   0  0  0  0  0  0  0  0  0  0  0  0
   -0.3580    7.9430   16.9670 C   0  0  0  0  0  0  0  0  0  0  0  0
   -1.3220    6.8040   17.2090 C   0  0  0  0  0  0  0  0  0  0  0  0
   -2.5850    6.9860   16.7330 N   0  0  0  0  0  0  0  0  0  0  0  0
   -3.4860    6.0050   16.9480 C   0  0  0  0  0  0  0  0  0  0  0  0
   -3.2020    4.8390   17.6310 C   0  0  0  0  0  0  0  0  0  0  0  0
   -1.9170    4.6680   18.1300 C   0  0  0  0  0  0  0  0  0  0  0  0
   -0.9490    5.6610   17.9320 C   0  0  0  0  0  0  0  0  0  0  0  0
    0.4350    5.4760   18.4790 C   0  0  0  0  0  0  0  0  0  0  0  0
  1  2  2  0
  1 13  1  0
  3  4  1  0
  3  2  1  0
  5  3  2  0
  6  5  1  0
  6  7  2  0
  7  1  1  0
  8  7  1  0
  9 10  1  0
 10 11  2  0
 11 12  1  0
 13 12  2  0
 14 10  1  0
 14 13  1  0
 15  6  1  0
 15 17  1  0
 16 15  2  0
 17 18  1  0
 18 19  1  0
 19 24  1  0
 20 21  1  0
 20 19  2  0
 21 22  2  0
 22 23  1  0
 24 23  2  0
 24 25  1  0
M  END
$$$$
