lig_268
     RDKit          3D

 27 28  0  0  1  0  0  0  0  0999 V2000
   -4.2880    9.5060   15.7280 C   0  0  0  0  0  0  0  0  0  0  0  0
   -2.9990    9.8950   15.3410 C   0  0  0  0  0  0  0  0  0  0  0  0
   -2.6500   11.2480   15.2820 C   0  0  0  0  0  0  0  0  0  0  0  0
   -3.5840   12.2340   15.6160 C   0  0  0  0  0  0  0  0  0  0  0  0
   -4.8790   11.8510   15.9840 C   0  0  0  0  0  0  0  0  0  0  0  0
   -5.2230   10.4940   16.0430 C   0  0  0  0  0  0  0  0  0  0  0  0
   -3.1700   13.6650   15.5370 C   0  0  0  0  0  0  0  0  0  0  0  0
   -3.2940   14.2370   14.4620 O   0  0  0  0  0  0  0  0  0  0  0  0
   -2.6460   14.1760   16.7020 N   0  0  0  0  0  0  0  0  0  0  0  0
   -2.2120   15.4580   16.9200 C   0  0  0  0  0  0  0  0  0  0  0  0
   -1.6670   15.7930   18.0680 N   0  0  0  0  0  0  0  0  0  0  0  0
   -1.3250   17.1320   18.0420 C   0  0  0  0  0  0  0  0  0  0  0  0
   -1.6240   17.7960   16.8720 C   0  0  0  0  0  0  0  0  0  0  0  0
   -2.3570   16.7070   15.7710 S   0  0  0  0  0  0  0  0  0  0  0  0
   -5.2950    7.3820   14.8480 C   0  0  0  0  0  0  0  0  0  0  0  0
   -5.8620    7.8170   13.8530 O   0  0  0  0  0  0  0  0  0  0  0  0
   -4.5590    8.1230   15.7620 N   0  0  0  0  0  0  0  0  0  0  0  0
   -5.3380    5.9090   15.2410 C   0  0  0  0  0  0  0  0  0  0  0  0
   -4.7020    5.6090   16.6100 C   0  0  1  0  0  0  0  0  0  0  0  0
   -5.7580    5.1840   17.6350 C   0  0  0  0  0  0  0  0  0  0  0  0
   -3.5700    4.5610   16.4960 C   0  0  0  0  0  0  0  0  0  0  0  0
   -2.9490    4.1250   17.8350 C   0  0  0  0  0  0  0  0  0  0  0  0
   -1.7250    4.8830   18.1580 N   0  0  0  0  0  0  0  0  0  0  0  0
   -1.2140    2.6060   18.9020 C   0  0  0  0  0  0  0  0  0  0  0  0
   -0.6850    4.0260   18.7570 C   0  0  0  0  0  0  0  0  0  0  0  0
   -1.2320    5.5860   16.9600 C   0  0  0  0  0  0  0  0  0  0  0  0
   -1.1130    7.0930   17.1730 C   0  0  0  0  0  0  0  0  0  0  0  0
  1 17  1  0
  1  6  2  0
  2  1  1  0
  3  2  2  0
  3  4  1  0
  4  5  2  0
  5  6  1  0
  7  4  1  0
  7  9  1  0
  8  7  2  0
  9 10  1  0
 10 11  2  0
 12 11  1  0
 13 12  2  0
 14 13  1  0
 14 10  1  0
 15 18  1  0
 15 17  1  0
 16 15  2  0
 18 19  1  0
 19 20  1  1
 21 19  1  0
 21 22  1  0
 22 23  1  0
 23 25  1  0
 25 24  1  0
 26 27  1  0
 26 23  1  0
M  END
$$$$
