lig_274
     RDKit          3D

 38 43  0  0  1  0  0  0  0  0999 V2000
    1.4070  -19.5140   12.6000 C   0  0  1  0  0  0  0  0  0  0  0  0
    1.4520  -19.6250   14.1330 C   0  0  0  0  0  0  0  0  0  0  0  0
    1.4930  -21.0800   14.5870 C   0  0  0  0  0  0  0  0  0  0  0  0
    0.2180  -21.8450   14.1780 C   0  0  1  0  0  0  0  0  0  0  0  0
   -0.3960  -21.2770   12.8770 C   0  0  0  0  0  0  0  0  0  0  0  0
    0.6620  -20.6930   11.9470 C   0  0  0  0  0  0  0  0  0  0  0  0
    2.5630  -16.9520   12.9530 O   0  0  0  0  0  0  0  0  0  0  0  0
    1.4780  -17.0440   12.3900 C   0  0  0  0  0  0  0  0  0  0  0  0
    0.8100  -18.2390   12.2120 N   0  0  0  0  0  0  0  0  0  0  0  0
    0.8100  -15.8200   11.8920 C   0  0  0  0  0  0  0  0  0  0  0  0
   -0.0830  -15.1370   12.7090 C   0  0  0  0  0  0  0  0  0  0  0  0
   -0.7030  -13.9800   12.2330 C   0  0  0  0  0  0  0  0  0  0  0  0
   -0.4280  -13.5160   10.9430 C   0  0  0  0  0  0  0  0  0  0  0  0
    0.4670  -14.1600   10.1610 N   0  0  0  0  0  0  0  0  0  0  0  0
    1.0650  -15.2800   10.6430 C   0  0  0  0  0  0  0  0  0  0  0  0
   -1.0500  -12.3430   10.4780 N   0  0  0  0  0  0  0  0  0  0  0  0
   -0.2890  -11.6650    9.4050 C   0  0  0  0  0  0  0  0  0  0  0  0
   -1.0730  -10.4380    8.9070 C   0  0  0  0  0  0  0  0  0  0  0  0
   -1.3750   -9.5300    9.9770 O   0  0  0  0  0  0  0  0  0  0  0  0
   -2.1570  -10.1970   10.9820 C   0  0  0  0  0  0  0  0  0  0  0  0
   -1.4080  -11.4050   11.5660 C   0  0  0  0  0  0  0  0  0  0  0  0
    0.4560  -23.3670   14.0430 C   0  0  0  0  0  0  0  0  0  0  0  0
   -0.7680  -24.1880   13.5970 C   0  0  0  0  0  0  0  0  0  0  0  0
   -1.6700  -24.5850   14.6820 N   0  0  0  0  0  0  0  0  0  0  0  0
   -2.8400  -23.6890   14.8330 C   0  0  0  0  0  0  0  0  0  0  0  0
   -2.7200  -22.6270   15.9510 C   0  0  0  0  0  0  0  0  0  0  0  0
   -2.4910  -23.2490   17.2790 N   0  0  0  0  0  0  0  0  0  0  0  0
   -1.8290  -24.5740   17.2040 C   0  0  0  0  0  0  0  0  0  0  0  0
   -0.9220  -24.6900   15.9630 C   0  0  0  0  0  0  0  0  0  0  0  0
   -1.8210  -22.3430   18.1260 C   0  0  0  0  0  0  0  0  0  0  0  0
   -0.7380  -21.6640   17.6780 N   0  0  0  0  0  0  0  0  0  0  0  0
   -0.1300  -20.7730   18.5080 C   0  0  0  0  0  0  0  0  0  0  0  0
   -0.5370  -20.5080   19.8000 C   0  0  0  0  0  0  0  0  0  0  0  0
   -1.6210  -21.2260   20.2320 C   0  0  0  0  0  0  0  0  0  0  0  0
   -2.2720  -22.1330   19.4150 C   0  0  0  0  0  0  0  0  0  0  0  0
   -3.4190  -22.7080   20.1500 C   0  0  0  0  0  0  0  0  0  0  0  0
   -3.0370  -22.2760   21.5650 C   0  0  0  0  0  0  0  0  0  0  0  0
   -2.1670  -21.1220   21.4870 O   0  0  0  0  0  0  0  0  0  0  0  0
  1  9  1  1
  1  2  1  0
  2  3  1  0
  4 22  1  6
  4  3  1  0
  5  4  1  0
  6  1  1  0
  6  5  1  0
  8  7  2  0
  9  8  1  0
 10  8  1  0
 10 11  1  0
 12 11  2  0
 13 12  1  0
 14 15  1  0
 14 13  2  0
 15 10  2  0
 16 13  1  0
 16 21  1  0
 17 16  1  0
 18 17  1  0
 18 19  1  0
 19 20  1  0
 20 21  1  0
 23 22  1  0
 23 24  1  0
 24 25  1  0
 24 29  1  0
 25 26  1  0
 26 27  1  0
 27 30  1  0
 28 27  1  0
 29 28  1  0
 30 35  1  0
 31 30  2  0
 31 32  1  0
 32 33  2  0
 33 34  1  0
 34 38  1  0
 35 36  1  0
 35 34  2  0
 36 37  1  0
 38 37  1  0
M  END
$$$$
