lig_116
     RDKit          3D

 39 42  0  0  0  0  0  0  0  0999 V2000
    0.2700  -15.3750   12.1050 N   0  0  0  0  0  0  0  0  0  0  0  0
    1.6930  -15.5790   12.4570 C   0  0  0  0  0  0  0  0  0  0  0  0
    1.8190  -16.4590   13.7220 C   0  0  0  0  0  0  0  0  0  0  0  0
    1.1240  -17.7690   13.6470 N   0  0  0  0  0  0  0  0  0  0  0  0
   -0.2820  -17.5170   13.2570 C   0  0  0  0  0  0  0  0  0  0  0  0
   -0.4820  -16.6440   11.9920 C   0  0  0  0  0  0  0  0  0  0  0  0
   -0.6880  -12.5400   10.0860 C   0  0  0  0  0  0  0  0  0  0  0  0
   -0.5220  -13.3400   11.1560 N   0  0  0  0  0  0  0  0  0  0  0  0
    0.0920  -14.5230   10.9980 C   0  0  0  0  0  0  0  0  0  0  0  0
    0.5120  -14.9320    9.7480 C   0  0  0  0  0  0  0  0  0  0  0  0
    0.3040  -14.0750    8.6820 C   0  0  0  0  0  0  0  0  0  0  0  0
   -0.3020  -12.8740    8.8430 N   0  0  0  0  0  0  0  0  0  0  0  0
   -2.9460  -11.4680   10.4290 C   0  0  0  0  0  0  0  0  0  0  0  0
   -1.4310  -11.2220   10.2870 C   0  0  0  0  0  0  0  0  0  0  0  0
   -1.1740  -10.3280    9.0630 C   0  0  0  0  0  0  0  0  0  0  0  0
   -0.9470  -10.4960   11.5570 C   0  0  0  0  0  0  0  0  0  0  0  0
    0.7330  -14.5170    7.2950 C   0  0  0  0  0  0  0  0  0  0  0  0
   -0.2810  -14.4380    6.3830 F   0  0  0  0  0  0  0  0  0  0  0  0
    1.7650  -13.7980    6.7710 F   0  0  0  0  0  0  0  0  0  0  0  0
    1.1430  -15.8200    7.2680 F   0  0  0  0  0  0  0  0  0  0  0  0
    1.8240  -18.6870   12.7360 C   0  0  0  0  0  0  0  0  0  0  0  0
    1.3380  -20.1410   12.8470 C   0  0  0  0  0  0  0  0  0  0  0  0
    0.7610  -20.7330   11.5530 C   0  0  0  0  0  0  0  0  0  0  0  0
   -0.2640  -21.8440   11.7690 C   0  0  0  0  0  0  0  0  0  0  0  0
   -0.7380  -21.8780   13.1400 N   0  0  0  0  0  0  0  0  0  0  0  0
   -1.5610  -22.8960   13.5540 C   0  0  0  0  0  0  0  0  0  0  0  0
   -1.9530  -23.7750   12.7910 O   0  0  0  0  0  0  0  0  0  0  0  0
   -1.9290  -22.8330   14.8850 N   0  0  0  0  0  0  0  0  0  0  0  0
   -2.8680  -23.8320   15.4020 C   0  0  0  0  0  0  0  0  0  0  0  0
   -4.0970  -23.1810   16.0650 C   0  0  0  0  0  0  0  0  0  0  0  0
   -3.7090  -22.2320   17.1320 N   0  0  0  0  0  0  0  0  0  0  0  0
   -2.3000  -21.8070   17.1620 C   0  0  0  0  0  0  0  0  0  0  0  0
   -1.7290  -21.6550   15.7390 C   0  0  0  0  0  0  0  0  0  0  0  0
   -4.5660  -22.0040   18.2010 C   0  0  0  0  0  0  0  0  0  0  0  0
   -4.7240  -22.9210   19.2450 C   0  0  0  0  0  0  0  0  0  0  0  0
   -5.5900  -22.6390   20.2940 C   0  0  0  0  0  0  0  0  0  0  0  0
   -6.3110  -21.5070   20.3920 N   0  0  0  0  0  0  0  0  0  0  0  0
   -6.1510  -20.6200   19.3910 C   0  0  0  0  0  0  0  0  0  0  0  0
   -5.3110  -20.8220   18.3030 C   0  0  0  0  0  0  0  0  0  0  0  0
  1  2  1  0
  2  3  1  0
  4  3  1  0
  5  4  1  0
  6  1  1  0
  6  5  1  0
  7 14  1  0
  7  8  2  0
  9  8  1  0
  9  1  1  0
 10  9  2  0
 11 12  2  0
 11 10  1  0
 12  7  1  0
 14 13  1  0
 14 16  1  0
 15 14  1  0
 17 11  1  0
 18 17  1  0
 19 17  1  0
 20 17  1  0
 21 22  1  0
 21  4  1  0
 23 24  1  0
 23 22  1  0
 24 25  1  0
 25 26  1  0
 26 28  1  0
 27 26  2  0
 28 29  1  0
 28 33  1  0
 29 30  1  0
 30 31  1  0
 31 32  1  0
 31 34  1  0
 33 32  1  0
 34 39  2  0
 34 35  1  0
 35 36  2  0
 36 37  1  0
 38 37  2  0
 39 38  1  0
M  END
$$$$
