lig_357
     RDKit          3D

 33 36  0  0  0  0  0  0  0  0999 V2000
   -1.5200    8.2050   16.7640 C   0  0  0  0  0  0  0  0  0  0  0  0
   -2.7930    7.6130   16.7420 C   0  0  0  0  0  0  0  0  0  0  0  0
   -2.9710    6.2880   17.1570 C   0  0  0  0  0  0  0  0  0  0  0  0
   -1.8750    5.5510   17.6140 C   0  0  0  0  0  0  0  0  0  0  0  0
   -0.5990    6.1140   17.6220 C   0  0  0  0  0  0  0  0  0  0  0  0
   -0.4300    7.4390   17.2090 C   0  0  0  0  0  0  0  0  0  0  0  0
   -1.2510   13.8590   14.9460 N   0  0  0  0  0  0  0  0  0  0  0  0
    0.1290   13.6630   15.1410 C   0  0  0  0  0  0  0  0  0  0  0  0
    0.9720   14.5360   14.9330 O   0  0  0  0  0  0  0  0  0  0  0  0
    0.5310   12.4260   15.5850 N   0  0  0  0  0  0  0  0  0  0  0  0
   -0.3680   11.4410   15.8230 C   0  0  0  0  0  0  0  0  0  0  0  0
   -0.1020   10.1870   16.2550 N   0  0  0  0  0  0  0  0  0  0  0  0
   -1.2890    9.5930   16.3410 C   0  0  0  0  0  0  0  0  0  0  0  0
   -2.2880   10.4700   15.9540 N   0  0  0  0  0  0  0  0  0  0  0  0
   -1.6920   11.6510   15.6280 C   0  0  0  0  0  0  0  0  0  0  0  0
   -2.2330   12.8820   15.1720 C   0  0  0  0  0  0  0  0  0  0  0  0
   -3.4370   13.0440   15.0030 O   0  0  0  0  0  0  0  0  0  0  0  0
   -1.6830   15.1660   14.4650 C   0  0  0  0  0  0  0  0  0  0  0  0
   -1.2530   17.0200   16.1650 C   0  0  0  0  0  0  0  0  0  0  0  0
   -2.2660   16.0530   15.5710 C   0  0  0  0  0  0  0  0  0  0  0  0
   -2.0910    3.8520   18.1100 S   0  0  0  0  0  0  0  0  0  0  0  0
   -0.7750    3.3050   18.3720 O   0  0  0  0  0  0  0  0  0  0  0  0
   -3.1240    3.8290   19.1240 O   0  0  0  0  0  0  0  0  0  0  0  0
   -2.6970    3.1100   16.7100 N   0  0  0  0  0  0  0  0  0  0  0  0
   -2.9940    1.6700   16.7720 C   0  0  0  0  0  0  0  0  0  0  0  0
   -3.6360    3.8910   15.8690 C   0  0  0  0  0  0  0  0  0  0  0  0
   -4.9440    3.1110   15.7140 C   0  0  0  0  0  0  0  0  0  0  0  0
   -6.0190    3.6560   16.6220 C   0  0  0  0  0  0  0  0  0  0  0  0
   -5.8840    4.9220   17.2080 C   0  0  0  0  0  0  0  0  0  0  0  0
   -6.8920    5.4310   18.0270 C   0  0  0  0  0  0  0  0  0  0  0  0
   -8.0440    4.6830   18.2650 C   0  0  0  0  0  0  0  0  0  0  0  0
   -8.1890    3.4250   17.6840 C   0  0  0  0  0  0  0  0  0  0  0  0
   -7.1810    2.9130   16.8650 C   0  0  0  0  0  0  0  0  0  0  0  0
  1  6  2  0
  2  1  1  0
  2  3  2  0
  3  4  1  0
  4  5  2  0
  4 21  1  0
  6  5  1  0
  7  8  1  0
  7 16  1  0
  8 10  1  0
  9  8  2  0
 10 11  1  0
 11 12  1  0
 12 13  2  0
 13  1  1  0
 14 13  1  0
 15 11  2  0
 15 14  1  0
 16 15  1  0
 17 16  2  0
 18  7  1  0
 18 20  1  0
 20 19  1  0
 21 22  2  0
 21 23  2  0
 24 25  1  0
 24 21  1  0
 26 24  1  0
 27 26  1  0
 27 28  1  0
 28 33  1  0
 28 29  2  0
 29 30  1  0
 30 31  2  0
 32 31  1  0
 33 32  2  0
M  END
$$$$
