lig_252
     RDKit          3D

 23 25  0  0  0  0  0  0  0  0999 V2000
   -8.3000    4.7010   17.5050 C   0  0  0  0  0  0  0  0  0  0  0  0
   -6.8070    4.6160   17.7050 C   0  0  0  0  0  0  0  0  0  0  0  0
   -6.3030    3.6510   18.2710 O   0  0  0  0  0  0  0  0  0  0  0  0
   -6.1390    5.7160   17.2240 N   0  0  0  0  0  0  0  0  0  0  0  0
   -4.7650    5.9710   17.2430 C   0  0  0  0  0  0  0  0  0  0  0  0
   -3.8250    5.0920   17.7310 C   0  0  0  0  0  0  0  0  0  0  0  0
   -2.5040    5.4940   17.6860 C   0  0  0  0  0  0  0  0  0  0  0  0
   -2.1610    6.6910   17.1670 N   0  0  0  0  0  0  0  0  0  0  0  0
   -3.1380    7.4950   16.7030 C   0  0  0  0  0  0  0  0  0  0  0  0
   -2.7530    8.7720   16.1450 N   0  0  0  0  0  0  0  0  0  0  0  0
   -1.4350    9.1380   16.0800 N   0  0  0  0  0  0  0  0  0  0  0  0
   -1.4280   10.3490   15.5210 C   0  0  0  0  0  0  0  0  0  0  0  0
   -0.1440   11.0560   15.3000 C   0  0  0  0  0  0  0  0  0  0  0  0
   -2.7260   10.7880   15.2100 C   0  0  0  0  0  0  0  0  0  0  0  0
   -3.5670    9.7720   15.6120 C   0  0  0  0  0  0  0  0  0  0  0  0
   -5.0480    9.6990   15.5250 C   0  0  0  0  0  0  0  0  0  0  0  0
   -4.4460    7.1690   16.7290 N   0  0  0  0  0  0  0  0  0  0  0  0
   -1.3790    4.6630   18.1770 C   0  0  0  0  0  0  0  0  0  0  0  0
   -0.0750    5.1700   18.3390 C   0  0  0  0  0  0  0  0  0  0  0  0
    0.9700    4.3660   18.8080 C   0  0  0  0  0  0  0  0  0  0  0  0
    0.7400    3.0310   19.1230 C   0  0  0  0  0  0  0  0  0  0  0  0
   -0.5360    2.4980   18.9640 C   0  0  0  0  0  0  0  0  0  0  0  0
   -1.5770    3.3040   18.4950 C   0  0  0  0  0  0  0  0  0  0  0  0
  1  2  1  0
  2  3  2  0
  4  5  1  0
  4  2  1  0
  5  6  2  0
  7  6  1  0
  7 18  1  0
  8  7  2  0
  9 17  2  0
  9  8  1  0
 10  9  1  0
 11 10  1  0
 12 11  2  0
 13 12  1  0
 14 12  1  0
 14 15  2  0
 15 10  1  0
 16 15  1  0
 17  5  1  0
 18 19  2  0
 18 23  1  0
 19 20  1  0
 20 21  2  0
 22 21  1  0
 23 22  2  0
M  END
$$$$
