lig_186
     RDKit          3D

 33 37  0  0  1  0  0  0  0  0999 V2000
   -0.6890  -23.1280   14.1250 C   0  0  1  0  0  0  0  0  0  0  0  0
   -1.1380  -21.6770   14.3680 C   0  0  0  0  0  0  0  0  0  0  0  0
   -0.2030  -20.9470   15.3300 C   0  0  0  0  0  0  0  0  0  0  0  0
    1.2440  -20.8660   14.7970 C   0  0  1  0  0  0  0  0  0  0  0  0
    1.5580  -22.0080   13.8080 C   0  0  0  0  0  0  0  0  0  0  0  0
    0.8370  -23.2940   14.1930 C   0  0  0  0  0  0  0  0  0  0  0  0
   -3.2760  -24.3070   13.8910 O   0  0  0  0  0  0  0  0  0  0  0  0
   -2.5980  -24.5220   14.8900 C   0  0  0  0  0  0  0  0  0  0  0  0
   -1.3260  -24.0350   15.0690 N   0  0  0  0  0  0  0  0  0  0  0  0
   -3.1400  -25.3100   16.0660 C   0  0  0  0  0  0  0  0  0  0  0  0
   -3.4130  -24.4270   17.2810 C   0  0  2  0  0  0  0  0  0  0  0  0
   -4.3330  -23.2520   16.9170 C   0  0  0  0  0  0  0  0  0  0  0  0
   -4.6500  -22.4370   18.0550 O   0  0  0  0  0  0  0  0  0  0  0  0
   -3.6270  -22.4580   19.0600 C   0  0  0  0  0  0  0  0  0  0  0  0
   -2.2420  -22.6890   18.4610 C   0  0  0  0  0  0  0  0  0  0  0  0
   -2.1400  -23.9510   17.7820 O   0  0  0  0  0  0  0  0  0  0  0  0
    1.5740  -19.5120   14.1300 C   0  0  0  0  0  0  0  0  0  0  0  0
    0.9010  -18.2810   14.7640 C   0  0  0  0  0  0  0  0  0  0  0  0
    0.6630  -17.1770   13.8250 N   0  0  0  0  0  0  0  0  0  0  0  0
    0.1610  -17.6600   12.5390 C   0  0  0  0  0  0  0  0  0  0  0  0
   -0.3700  -16.4940   11.6970 C   0  0  0  0  0  0  0  0  0  0  0  0
    0.4760  -15.2140   11.8450 C   0  0  0  0  0  0  0  0  0  0  0  0
    1.8900  -15.5610   12.3230 C   0  0  0  0  0  0  0  0  0  0  0  0
    1.8450  -16.3130   13.6610 C   0  0  0  0  0  0  0  0  0  0  0  0
    0.4680  -14.3850   10.5780 C   0  0  0  0  0  0  0  0  0  0  0  0
    1.2870  -14.6930    9.4740 C   0  0  0  0  0  0  0  0  0  0  0  0
    1.2610  -13.9150    8.3020 C   0  0  0  0  0  0  0  0  0  0  0  0
    0.4150  -12.8110    8.2040 C   0  0  0  0  0  0  0  0  0  0  0  0
   -0.3860  -12.5230    9.2880 C   0  0  0  0  0  0  0  0  0  0  0  0
   -0.3630  -13.2830   10.4370 C   0  0  0  0  0  0  0  0  0  0  0  0
   -1.2390  -12.8140   11.3700 O   0  0  0  0  0  0  0  0  0  0  0  0
   -1.8070  -11.6850   10.6800 C   0  0  0  0  0  0  0  0  0  0  0  0
   -1.2700  -11.4910    9.3570 O   0  0  0  0  0  0  0  0  0  0  0  0
  1  6  1  0
  1  2  1  0
  1  9  1  1
  2  3  1  0
  4 17  1  6
  4  3  1  0
  5  6  1  0
  5  4  1  0
  7  8  2  0
  8  9  1  0
  8 10  1  0
 11 10  1  6
 11 16  1  0
 12 11  1  0
 12 13  1  0
 13 14  1  0
 15 14  1  0
 16 15  1  0
 17 18  1  0
 19 18  1  0
 20 19  1  0
 21 22  1  0
 21 20  1  0
 22 25  1  0
 22 23  1  0
 23 24  1  0
 24 19  1  0
 26 25  2  0
 27 26  1  0
 28 27  2  0
 28 29  1  0
 29 33  1  0
 29 30  2  0
 30 25  1  0
 30 31  1  0
 32 31  1  0
 33 32  1  0
M  END
$$$$
