lig_221
     RDKit          3D

 32 36  0  0  0  0  0  0  0  0999 V2000
   -1.7940   10.1210   16.0280 N   0  0  0  0  0  0  0  0  0  0  0  0
   -0.7890   10.9550   16.4530 C   0  0  0  0  0  0  0  0  0  0  0  0
   -1.1020   12.1630   15.9080 C   0  0  0  0  0  0  0  0  0  0  0  0
   -2.2820   11.9780   15.1760 C   0  0  0  0  0  0  0  0  0  0  0  0
   -2.9330   12.9900   14.4430 N   0  0  0  0  0  0  0  0  0  0  0  0
   -2.3820   14.1710   14.5190 C   0  0  0  0  0  0  0  0  0  0  0  0
   -2.9620   15.2230   13.8490 N   0  0  0  0  0  0  0  0  0  0  0  0
   -3.2120   16.4540   14.4370 C   0  0  0  0  0  0  0  0  0  0  0  0
   -3.0410   16.7010   15.6280 O   0  0  0  0  0  0  0  0  0  0  0  0
   -1.1720   14.4790   15.1910 N   0  0  0  0  0  0  0  0  0  0  0  0
   -0.4400   15.6120   15.0930 N   0  0  0  0  0  0  0  0  0  0  0  0
    0.6010   15.3190   15.8960 C   0  0  0  0  0  0  0  0  0  0  0  0
    0.6170   14.0320   16.3990 N   0  0  0  0  0  0  0  0  0  0  0  0
   -0.4830   13.5380   15.8990 C   0  0  0  0  0  0  0  0  0  0  0  0
   -2.7200   10.7270   15.2390 N   0  0  0  0  0  0  0  0  0  0  0  0
    1.7350   16.3480   16.2160 C   0  0  0  0  0  0  0  0  0  0  0  0
    2.4070   17.1240   15.2890 C   0  0  0  0  0  0  0  0  0  0  0  0
    3.3410   17.9050   16.0090 C   0  0  0  0  0  0  0  0  0  0  0  0
    3.1840   17.5610   17.3320 C   0  0  0  0  0  0  0  0  0  0  0  0
    2.2160   16.6190   17.4670 O   0  0  0  0  0  0  0  0  0  0  0  0
   -1.9340    8.7080   16.3430 C   0  0  0  0  0  0  0  0  0  0  0  0
   -0.7040    8.1670   17.0730 C   0  0  0  0  0  0  0  0  0  0  0  0
    0.4370    6.1530   18.1390 C   0  0  0  0  0  0  0  0  0  0  0  0
   -0.5890    6.6330   17.1120 C   0  0  0  0  0  0  0  0  0  0  0  0
   -1.9390    5.9550   17.3470 C   0  0  0  0  0  0  0  0  0  0  0  0
   -3.7740   17.4860   13.4750 C   0  0  0  0  0  0  0  0  0  0  0  0
   -5.1860   17.9000   13.8060 C   0  0  0  0  0  0  0  0  0  0  0  0
   -5.4290   19.0880   14.5120 C   0  0  0  0  0  0  0  0  0  0  0  0
   -6.7320   19.4600   14.8420 C   0  0  0  0  0  0  0  0  0  0  0  0
   -7.8050   18.6530   14.4680 C   0  0  0  0  0  0  0  0  0  0  0  0
   -7.5760   17.4740   13.7610 C   0  0  0  0  0  0  0  0  0  0  0  0
   -6.2730   17.0990   13.4290 C   0  0  0  0  0  0  0  0  0  0  0  0
  1 21  1  0
  1  2  1  0
  3  2  2  0
  4 15  2  0
  4  3  1  0
  5  6  2  0
  5  4  1  0
  6 10  1  0
  7  8  1  0
  7  6  1  0
  8  9  2  0
 10 14  1  0
 11 10  1  0
 11 12  2  0
 12 16  1  0
 12 13  1  0
 14  3  1  0
 14 13  2  0
 15  1  1  0
 16 20  1  0
 17 18  1  0
 17 16  2  0
 18 19  2  0
 19 20  1  0
 21 22  1  0
 22 24  1  0
 24 25  1  0
 24 23  1  0
 26 27  1  0
 26  8  1  0
 27 28  2  0
 28 29  1  0
 30 29  2  0
 31 30  1  0
 32 31  2  0
 32 27  1  0
M  END
$$$$
