lig_389
     RDKit          3D

 24 27  0  0  0  0  0  0  0  0999 V2000
   -0.0210  -17.0280   12.6430 N   0  0  0  0  0  0  0  0  0  0  0  0
    0.0090  -17.1550   14.1080 C   0  0  0  0  0  0  0  0  0  0  0  0
    0.5360  -18.4980   14.6030 C   0  0  0  0  0  0  0  0  0  0  0  0
   -0.3030  -19.6550   14.0440 C   0  0  0  0  0  0  0  0  0  0  0  0
   -0.8300  -19.3660   12.6280 C   0  0  0  0  0  0  0  0  0  0  0  0
    0.0280  -18.3150   11.9330 C   0  0  0  0  0  0  0  0  0  0  0  0
    0.4450  -20.9110   14.1120 N   0  0  0  0  0  0  0  0  0  0  0  0
    1.7670  -20.9070   13.8150 N   0  0  0  0  0  0  0  0  0  0  0  0
    2.1240  -22.1860   13.9300 C   0  0  0  0  0  0  0  0  0  0  0  0
    1.0530  -23.0080   14.3100 C   0  0  0  0  0  0  0  0  0  0  0  0
   -0.0290  -22.1610   14.4440 C   0  0  0  0  0  0  0  0  0  0  0  0
   -1.3990  -22.4670   14.8320 C   0  0  0  0  0  0  0  0  0  0  0  0
   -1.7760  -22.4150   16.1780 C   0  0  0  0  0  0  0  0  0  0  0  0
   -3.0870  -22.7140   16.5530 C   0  0  0  0  0  0  0  0  0  0  0  0
   -4.0280  -23.0610   15.5840 C   0  0  0  0  0  0  0  0  0  0  0  0
   -3.6610  -23.1060   14.2400 C   0  0  0  0  0  0  0  0  0  0  0  0
   -2.3500  -22.8080   13.8640 C   0  0  0  0  0  0  0  0  0  0  0  0
    1.0210  -16.1240   12.1270 C   0  0  0  0  0  0  0  0  0  0  0  0
   -0.5270  -12.6230   10.1160 C   0  0  0  0  0  0  0  0  0  0  0  0
   -1.0110  -12.9770   11.3740 C   0  0  0  0  0  0  0  0  0  0  0  0
   -0.5160  -14.1110   12.0210 C   0  0  0  0  0  0  0  0  0  0  0  0
    0.4660  -14.9080   11.4130 C   0  0  0  0  0  0  0  0  0  0  0  0
    0.9500  -14.5350   10.1500 C   0  0  0  0  0  0  0  0  0  0  0  0
    0.4540  -13.4020    9.5030 C   0  0  0  0  0  0  0  0  0  0  0  0
  1  2  1  0
  2  3  1  0
  4  7  1  0
  4  3  1  0
  5  4  1  0
  6  5  1  0
  6  1  1  0
  7 11  1  0
  8  9  2  0
  8  7  1  0
  9 10  1  0
 10 11  2  0
 11 12  1  0
 12 13  2  0
 13 14  1  0
 15 14  2  0
 16 15  1  0
 17 16  2  0
 17 12  1  0
 18  1  1  0
 19 20  2  0
 20 21  1  0
 22 21  2  0
 22 18  1  0
 23 22  1  0
 24 19  1  0
 24 23  2  0
M  END
$$$$
