lig_152
     RDKit          3D

 20 21  0  0  1  0  0  0  0  0999 V2000
   20.2950   17.7710    9.4730 N   0  0  0  0  0  0  0  0  0  0  0  0
   21.0100   16.8490   10.2100 C   0  0  0  0  0  0  0  0  0  0  0  0
   20.8730   16.7790   11.4290 O   0  0  0  0  0  0  0  0  0  0  0  0
   21.8940   15.9910    9.4330 C   0  0  0  0  0  0  0  0  0  0  0  0
   22.7400   14.9790    9.8410 C   0  0  0  0  0  0  0  0  0  0  0  0
   23.4490   14.3740    8.7610 C   0  0  0  0  0  0  0  0  0  0  0  0
   24.3500   13.3660    8.9070 N   0  0  0  0  0  0  0  0  0  0  0  0
   24.9220   12.9330    7.7700 C   0  0  0  0  0  0  0  0  0  0  0  0
   24.6570   13.4280    6.5060 C   0  0  0  0  0  0  0  0  0  0  0  0
   23.7170   14.4530    6.3420 C   0  0  0  0  0  0  0  0  0  0  0  0
   23.4490   15.0020    4.9710 C   0  0  0  0  0  0  0  0  0  0  0  0
   23.1170   14.9320    7.5260 C   0  0  0  0  0  0  0  0  0  0  0  0
   21.9570   16.1870    7.7310 S   0  0  0  0  0  0  0  0  0  0  0  0
   19.2590   18.5940   10.0810 C   0  0  0  0  0  0  0  0  0  0  0  0
   19.5070   20.0830    9.7980 C   0  0  1  0  0  0  0  0  0  0  0  0
   18.3160   20.6820    9.1150 N   0  0  0  0  0  0  0  0  0  0  0  0
   19.8530   20.8130   11.1010 C   0  0  0  0  0  0  0  0  0  0  0  0
   19.5590   21.9750   11.3500 O   0  0  0  0  0  0  0  0  0  0  0  0
   21.8960   20.2350   12.0980 C   0  0  0  0  0  0  0  0  0  0  0  0
   20.4970   19.9750   11.9690 O   0  0  0  0  0  0  0  0  0  0  0  0
  1 14  1  0
  1  2  1  0
  2  3  2  0
  4  5  2  0
  4  2  1  0
  6  7  2  0
  6  5  1  0
  8  7  1  0
  9  8  2  0
 10  9  1  0
 10 12  2  0
 11 10  1  0
 12 13  1  0
 12  6  1  0
 13  4  1  0
 15 14  1  0
 15 17  1  0
 15 16  1  1
 17 18  2  0
 17 20  1  0
 20 19  1  0
M  END
$$$$
