lig_054
     RDKit          3D

 33 36  0  0  1  0  0  0  0  0999 V2000
    0.6530  -15.1900   11.1150 C   0  0  1  0  0  0  0  0  0  0  0  0
    2.1100  -15.2300   11.5840 C   0  0  0  0  0  0  0  0  0  0  0  0
    2.3570  -16.3880   12.5460 C   0  0  0  0  0  0  0  0  0  0  0  0
    1.4070  -16.3470   13.7550 C   0  0  1  0  0  0  0  0  0  0  0  0
   -0.0550  -16.2900   13.2860 C   0  0  0  0  0  0  0  0  0  0  0  0
   -0.3000  -15.1380   12.3130 C   0  0  0  0  0  0  0  0  0  0  0  0
    0.1870  -14.1860    8.8880 C   0  0  0  0  0  0  0  0  0  0  0  0
    0.1570  -15.2710    8.3130 O   0  0  0  0  0  0  0  0  0  0  0  0
    0.4370  -14.0510   10.2380 N   0  0  0  0  0  0  0  0  0  0  0  0
   -0.1080  -12.8860    8.1660 C   0  0  0  0  0  0  0  0  0  0  0  0
   -0.1640   -9.4230   11.5550 C   0  0  0  0  0  0  0  0  0  0  0  0
   -0.6250  -10.3390   10.5420 N   0  0  0  0  0  0  0  0  0  0  0  0
   -1.9320  -10.4370   10.2350 N   0  0  0  0  0  0  0  0  0  0  0  0
   -1.9190  -11.3940    9.3050 C   0  0  0  0  0  0  0  0  0  0  0  0
   -0.6010  -11.8420    9.0950 C   0  0  0  0  0  0  0  0  0  0  0  0
    0.2340  -11.1530    9.8900 N   0  0  0  0  0  0  0  0  0  0  0  0
    1.6840  -17.5570   14.6730 C   0  0  0  0  0  0  0  0  0  0  0  0
    2.1760  -18.7980   13.9110 C   0  0  0  0  0  0  0  0  0  0  0  0
    1.0880  -19.7380   13.5830 N   0  0  0  0  0  0  0  0  0  0  0  0
    1.1910  -20.1580   12.1620 C   0  0  0  0  0  0  0  0  0  0  0  0
   -0.0390  -20.9770   11.6960 C   0  0  0  0  0  0  0  0  0  0  0  0
   -0.3660  -21.9920   12.7300 C   0  0  0  0  0  0  0  0  0  0  0  0
   -1.4070  -23.3140   12.5180 S   0  0  0  0  0  0  0  0  0  0  0  0
   -1.1250  -23.7620   14.1540 C   0  0  0  0  0  0  0  0  0  0  0  0
   -0.2990  -22.9930   14.8310 N   0  0  0  0  0  0  0  0  0  0  0  0
    0.1290  -21.9590   14.0160 C   0  0  0  0  0  0  0  0  0  0  0  0
    1.0950  -20.9150   14.4960 C   0  0  0  0  0  0  0  0  0  0  0  0
   -1.7150  -24.8400   14.6710 O   0  0  0  0  0  0  0  0  0  0  0  0
   -1.4360  -25.0640   16.0550 C   0  0  0  0  0  0  0  0  0  0  0  0
   -2.6690  -24.7790   16.9040 C   0  0  0  0  0  0  0  0  0  0  0  0
   -2.6660  -25.4530   18.2610 C   0  0  0  0  0  0  0  0  0  0  0  0
   -2.7810  -23.4350   17.0860 F   0  0  0  0  0  0  0  0  0  0  0  0
   -3.7870  -25.1600   16.2290 F   0  0  0  0  0  0  0  0  0  0  0  0
  1  9  1  6
  1  2  1  0
  1  6  1  0
  2  3  1  0
  3  4  1  0
  4 17  1  1
  5  4  1  0
  6  5  1  0
  7  9  1  0
  8  7  2  0
 10  7  1  0
 10 15  1  0
 12 11  1  0
 13 12  1  0
 14 13  2  0
 15 14  1  0
 15 16  2  0
 16 12  1  0
 18 17  1  0
 19 18  1  0
 19 27  1  0
 20 19  1  0
 21 20  1  0
 21 22  1  0
 22 26  2  0
 23 22  1  0
 23 24  1  0
 24 28  1  0
 24 25  2  0
 26 27  1  0
 26 25  1  0
 28 29  1  0
 29 30  1  0
 30 32  1  0
 30 31  1  0
 33 30  1  0
M  END
$$$$
