lig_284
     RDKit          3D

 36 40  0  0  1  0  0  0  0  0999 V2000
    0.5880  -16.6700   13.0020 C   0  0  1  0  0  0  0  0  0  0  0  0
    2.0890  -16.7330   13.3270 C   0  0  0  0  0  0  0  0  0  0  0  0
    2.4110  -17.5680   14.5670 C   0  0  0  0  0  0  0  0  0  0  0  0
    1.5160  -18.8050   14.7120 C   0  0  1  0  0  0  0  0  0  0  0  0
    0.0280  -18.3940   14.7820 C   0  0  0  0  0  0  0  0  0  0  0  0
   -0.2690  -16.9970   14.2260 C   0  0  0  0  0  0  0  0  0  0  0  0
    0.4980  -15.9670   10.2540 O   0  0  0  0  0  0  0  0  0  0  0  0
    0.1640  -15.1410   11.0970 C   0  0  0  0  0  0  0  0  0  0  0  0
    0.2330  -15.3660   12.4560 N   0  0  0  0  0  0  0  0  0  0  0  0
   -0.3220  -13.8010   10.6690 C   0  0  0  0  0  0  0  0  0  0  0  0
   -0.0660  -13.2850    9.3930 C   0  0  0  0  0  0  0  0  0  0  0  0
   -0.5410  -12.0170    9.0410 C   0  0  0  0  0  0  0  0  0  0  0  0
   -1.2620  -11.2410    9.9630 C   0  0  0  0  0  0  0  0  0  0  0  0
   -1.5080  -11.7620   11.2420 C   0  0  0  0  0  0  0  0  0  0  0  0
   -1.0340  -13.0280   11.5950 C   0  0  0  0  0  0  0  0  0  0  0  0
   -1.7920   -9.8810    9.5710 C   0  0  0  0  0  0  0  0  0  0  0  0
   -1.4370   -9.5370    8.3040 F   0  0  0  0  0  0  0  0  0  0  0  0
   -3.1500   -9.8000    9.6170 F   0  0  0  0  0  0  0  0  0  0  0  0
   -1.3310   -8.8820   10.3740 F   0  0  0  0  0  0  0  0  0  0  0  0
    1.7330  -19.8670   13.6060 C   0  0  0  0  0  0  0  0  0  0  0  0
    0.4740  -20.2790   12.8230 C   0  0  0  0  0  0  0  0  0  0  0  0
    0.1010  -21.6900   12.9910 N   0  0  0  0  0  0  0  0  0  0  0  0
   -1.3210  -21.8420   13.3750 C   0  0  0  0  0  0  0  0  0  0  0  0
   -1.6070  -21.8860   14.8940 C   0  0  0  0  0  0  0  0  0  0  0  0
   -0.7870  -22.8950   15.5940 N   0  0  0  0  0  0  0  0  0  0  0  0
    0.2820  -23.4960   14.7710 C   0  0  0  0  0  0  0  0  0  0  0  0
    0.9860  -22.3860   13.9600 C   0  0  0  0  0  0  0  0  0  0  0  0
   -1.5060  -23.8180   16.3600 C   0  0  0  0  0  0  0  0  0  0  0  0
   -1.5690  -25.1110   15.9600 N   0  0  0  0  0  0  0  0  0  0  0  0
   -2.2410  -26.0130   16.7260 C   0  0  0  0  0  0  0  0  0  0  0  0
   -2.8740  -25.7070   17.9130 C   0  0  0  0  0  0  0  0  0  0  0  0
   -2.7920  -24.3940   18.2980 C   0  0  0  0  0  0  0  0  0  0  0  0
   -2.1210  -23.4460   17.5420 C   0  0  0  0  0  0  0  0  0  0  0  0
   -2.1020  -22.1700   18.2920 C   0  0  0  0  0  0  0  0  0  0  0  0
   -3.1840  -22.4750   19.3270 C   0  0  0  0  0  0  0  0  0  0  0  0
   -3.3180  -23.9080   19.4670 O   0  0  0  0  0  0  0  0  0  0  0  0
  1  9  1  1
  1  2  1  0
  1  6  1  0
  2  3  1  0
  3  4  1  0
  4 20  1  6
  4  5  1  0
  6  5  1  0
  7  8  2  0
  8  9  1  0
 10  8  1  0
 10 15  2  0
 11 10  1  0
 12 11  2  0
 12 13  1  0
 13 14  2  0
 14 15  1  0
 16 18  1  0
 16 13  1  0
 16 19  1  0
 17 16  1  0
 21 22  1  0
 21 20  1  0
 22 23  1  0
 22 27  1  0
 23 24  1  0
 24 25  1  0
 25 28  1  0
 26 25  1  0
 27 26  1  0
 28 33  1  0
 29 28  2  0
 29 30  1  0
 30 31  2  0
 31 32  1  0
 32 36  1  0
 33 34  1  0
 33 32  2  0
 34 35  1  0
 35 36  1  0
M  END
$$$$
