lig_142
     RDKit          3D

 36 41  0  0  1  0  0  0  0  0999 V2000
    1.1610  -15.2880   10.7650 C   0  0  1  0  0  0  0  0  0  0  0  0
    2.4760  -15.2550   11.5640 C   0  0  0  0  0  0  0  0  0  0  0  0
    2.4850  -16.2980   12.6750 C   0  0  0  0  0  0  0  0  0  0  0  0
    1.3780  -16.0250   13.7160 C   0  0  1  0  0  0  0  0  0  0  0  0
    0.0980  -15.4620   13.0650 C   0  0  0  0  0  0  0  0  0  0  0  0
   -0.0170  -15.8310   11.5870 C   0  0  0  0  0  0  0  0  0  0  0  0
    1.6410  -14.3500    8.1360 O   0  0  0  0  0  0  0  0  0  0  0  0
    1.1500  -13.5810    8.9610 C   0  0  0  0  0  0  0  0  0  0  0  0
    0.8560  -13.9580   10.2540 N   0  0  0  0  0  0  0  0  0  0  0  0
    0.8970  -12.1190    8.6260 C   0  0  0  0  0  0  0  0  0  0  0  0
   -0.2780  -11.4850    9.3400 C   0  0  0  0  0  0  0  0  0  0  0  0
   -0.0610  -10.5690   10.3950 C   0  0  0  0  0  0  0  0  0  0  0  0
   -1.1370   -9.9880   11.0740 C   0  0  0  0  0  0  0  0  0  0  0  0
   -2.4100  -10.3380   10.6770 C   0  0  0  0  0  0  0  0  0  0  0  0
   -2.6310  -11.2250    9.6510 C   0  0  0  0  0  0  0  0  0  0  0  0
   -1.5910  -11.8140    8.9630 C   0  0  0  0  0  0  0  0  0  0  0  0
   -3.9540  -11.4330    9.4210 O   0  0  0  0  0  0  0  0  0  0  0  0
   -4.5420  -10.5690   10.4150 C   0  0  0  0  0  0  0  0  0  0  0  0
   -3.5670   -9.8760   11.2220 O   0  0  0  0  0  0  0  0  0  0  0  0
    1.1300  -17.3090   14.5400 C   0  0  0  0  0  0  0  0  0  0  0  0
    1.9650  -18.5340   14.1230 C   0  0  0  0  0  0  0  0  0  0  0  0
    1.1730  -19.6610   13.6160 N   0  0  0  0  0  0  0  0  0  0  0  0
    1.2860  -20.8520   14.4700 C   0  0  0  0  0  0  0  0  0  0  0  0
    0.1880  -20.9710   15.5270 C   0  0  0  0  0  0  0  0  0  0  0  0
   -1.2270  -20.9220   14.9170 C   0  0  0  0  0  0  0  0  0  0  0  0
   -1.2020  -20.4420   13.4570 C   0  0  0  0  0  0  0  0  0  0  0  0
   -0.2150  -19.2830   13.3110 C   0  0  0  0  0  0  0  0  0  0  0  0
   -2.0140  -22.2070   15.0690 C   0  0  0  0  0  0  0  0  0  0  0  0
   -2.3290  -22.9790   13.9340 C   0  0  0  0  0  0  0  0  0  0  0  0
   -3.0510  -24.1820   14.0430 C   0  0  0  0  0  0  0  0  0  0  0  0
   -3.4700  -24.6460   15.2890 C   0  0  0  0  0  0  0  0  0  0  0  0
   -3.1520  -23.8850   16.3920 C   0  0  0  0  0  0  0  0  0  0  0  0
   -2.4470  -22.7040   16.2890 C   0  0  0  0  0  0  0  0  0  0  0  0
   -2.2490  -22.1310   17.5090 O   0  0  0  0  0  0  0  0  0  0  0  0
   -2.8940  -23.0800   18.3780 C   0  0  0  0  0  0  0  0  0  0  0  0
   -3.4790  -24.1920   17.6770 O   0  0  0  0  0  0  0  0  0  0  0  0
  1  9  1  1
  1  2  1  0
  1  6  1  0
  2  3  1  0
  3  4  1  0
  4 20  1  6
  5  4  1  0
  6  5  1  0
  7  8  2  0
  8  9  1  0
 10  8  1  0
 10 11  1  0
 11 12  1  0
 12 13  2  0
 14 13  1  0
 14 19  1  0
 15 14  2  0
 16 11  2  0
 16 15  1  0
 17 15  1  0
 17 18  1  0
 18 19  1  0
 21 20  1  0
 22 21  1  0
 22 23  1  0
 23 24  1  0
 25 28  1  0
 25 24  1  0
 26 25  1  0
 27 26  1  0
 27 22  1  0
 28 33  1  0
 29 30  1  0
 29 28  2  0
 30 31  2  0
 31 32  1  0
 32 36  1  0
 33 32  2  0
 33 34  1  0
 34 35  1  0
 36 35  1  0
M  END
$$$$
