lig_392
     RDKit          3D

 34 39  0  0  1  0  0  0  0  0999 V2000
   -1.4800    9.9830   16.0110 N   0  0  0  0  0  0  0  0  0  0  0  0
   -0.1460   10.2380   16.1970 C   0  0  0  0  0  0  0  0  0  0  0  0
    0.4890    9.2040   16.7050 N   0  0  0  0  0  0  0  0  0  0  0  0
   -0.4770    8.2300   16.8490 C   0  0  0  0  0  0  0  0  0  0  0  0
   -0.4240    6.9100   17.3400 C   0  0  0  0  0  0  0  0  0  0  0  0
   -1.5850    6.2070   17.3900 N   0  0  0  0  0  0  0  0  0  0  0  0
   -2.7160    6.8000   16.9540 C   0  0  0  0  0  0  0  0  0  0  0  0
   -2.8820    8.0460   16.4660 N   0  0  0  0  0  0  0  0  0  0  0  0
   -1.7130    8.7030   16.4390 C   0  0  0  0  0  0  0  0  0  0  0  0
   -3.1700   11.6850   16.6620 C   0  0  2  0  0  0  0  0  0  0  0  0
   -2.4360   13.0500   16.6850 C   0  0  1  0  0  0  0  0  0  0  0  0
   -1.9270   13.2710   15.2870 C   0  0  2  0  0  0  0  0  0  0  0  0
   -2.7880   13.0910   14.0600 C   0  0  0  0  0  0  0  0  0  0  0  0
   -1.9360   11.9560   14.5750 C   0  0  2  0  0  0  0  0  0  0  0  0
   -2.5000   10.8940   15.5080 C   0  0  1  0  0  0  0  0  0  0  0  0
   -4.5690   11.8810   16.3960 O   0  0  0  0  0  0  0  0  0  0  0  0
   -3.3050   14.1020   17.0710 O   0  0  0  0  0  0  0  0  0  0  0  0
    0.7800    6.3370   17.7580 N   0  0  0  0  0  0  0  0  0  0  0  0
    0.7810    5.8330   19.1160 C   0  0  0  0  0  0  0  0  0  0  0  0
    0.6460    4.3280   19.0810 C   0  0  0  0  0  0  0  0  0  0  0  0
    1.7800    3.5020   19.1100 C   0  0  0  0  0  0  0  0  0  0  0  0
    1.6470    2.1130   19.0650 C   0  0  0  0  0  0  0  0  0  0  0  0
    0.3790    1.5350   18.9840 C   0  0  0  0  0  0  0  0  0  0  0  0
   -0.7510    2.3490   18.9460 C   0  0  0  0  0  0  0  0  0  0  0  0
   -2.3140    1.6350   18.8390 Cl  0  0  0  0  0  0  0  0  0  0  0  0
   -0.6240    3.7370   18.9910 C   0  0  0  0  0  0  0  0  0  0  0  0
   -3.8980    6.0090   17.0350 C   0  0  0  0  0  0  0  0  0  0  0  0
   -4.8940    5.3390   17.1040 C   0  0  0  0  0  0  0  0  0  0  0  0
   -6.0780    4.5420   17.1850 C   0  0  0  0  0  0  0  0  0  0  0  0
   -6.1320    3.3050   16.5400 C   0  0  0  0  0  0  0  0  0  0  0  0
   -7.2890    2.5260   16.6190 C   0  0  0  0  0  0  0  0  0  0  0  0
   -8.3900    2.9840   17.3430 C   0  0  0  0  0  0  0  0  0  0  0  0
   -8.3370    4.2200   17.9880 C   0  0  0  0  0  0  0  0  0  0  0  0
   -7.1810    4.9990   17.9100 C   0  0  0  0  0  0  0  0  0  0  0  0
  1  2  1  0
  1  9  1  0
  2  3  2  0
  3  4  1  0
  4  5  2  0
  5  6  1  0
  5 18  1  0
  7 27  1  0
  7  6  2  0
  8  7  1  0
  9  8  2  0
  9  4  1  0
 10 16  1  6
 10 11  1  0
 11 17  1  6
 12 13  1  6
 12 11  1  0
 14 13  1  6
 14 12  1  0
 14 15  1  0
 15  1  1  1
 15 10  1  0
 18 19  1  0
 20 21  2  0
 20 19  1  0
 22 21  1  0
 23 22  2  0
 24 23  1  0
 24 26  2  0
 25 24  1  0
 26 20  1  0
 27 28  3  0
 28 29  1  0
 29 34  1  0
 30 31  1  0
 30 29  2  0
 31 32  2  0
 32 33  1  0
 34 33  2  0
M  END
$$$$
