lig_222
     RDKit          3D

 32 35  0  0  0  0  0  0  0  0999 V2000
    0.3550  -21.0890   11.7130 C   0  0  0  0  0  0  0  0  0  0  0  0
   -0.7970  -24.0980   14.4790 C   0  0  0  0  0  0  0  0  0  0  0  0
    0.6860  -23.6970   14.4160 C   0  0  0  0  0  0  0  0  0  0  0  0
    0.9130  -22.3620   13.6990 C   0  0  0  0  0  0  0  0  0  0  0  0
   -0.0250  -22.2140   12.5830 N   0  0  0  0  0  0  0  0  0  0  0  0
   -1.4150  -22.1120   13.0600 C   0  0  0  0  0  0  0  0  0  0  0  0
   -1.6830  -22.8580   14.3720 C   0  0  0  0  0  0  0  0  0  0  0  0
   -1.0350  -24.8140   15.7410 N   0  0  0  0  0  0  0  0  0  0  0  0
   -2.7750  -24.2060   17.3360 C   0  0  0  0  0  0  0  0  0  0  0  0
   -3.2150  -23.4530   18.4310 C   0  0  0  0  0  0  0  0  0  0  0  0
   -2.3500  -22.5530   19.0550 C   0  0  0  0  0  0  0  0  0  0  0  0
   -1.0490  -22.3960   18.5860 C   0  0  0  0  0  0  0  0  0  0  0  0
   -0.6020  -23.1460   17.4960 C   0  0  0  0  0  0  0  0  0  0  0  0
   -1.4440  -24.0750   16.8710 C   0  0  0  0  0  0  0  0  0  0  0  0
   -4.5460  -25.8000   17.4030 C   0  0  0  0  0  0  0  0  0  0  0  0
   -3.5400  -25.1280   16.6570 O   0  0  0  0  0  0  0  0  0  0  0  0
    1.7110  -20.4840   12.1000 C   0  0  0  0  0  0  0  0  0  0  0  0
    1.6420  -18.9780   12.3710 C   0  0  0  0  0  0  0  0  0  0  0  0
    0.2200  -18.4280   12.3510 C   0  0  0  0  0  0  0  0  0  0  0  0
    0.1400  -17.2130   11.5660 N   0  0  0  0  0  0  0  0  0  0  0  0
    0.3870  -15.9880   12.1560 C   0  0  0  0  0  0  0  0  0  0  0  0
    0.7700  -15.8590   13.3130 O   0  0  0  0  0  0  0  0  0  0  0  0
    0.1160  -14.7880   11.3170 C   0  0  0  0  0  0  0  0  0  0  0  0
    0.6090  -14.7650   10.0090 C   0  0  0  0  0  0  0  0  0  0  0  0
    0.3790  -13.6570    9.1910 C   0  0  0  0  0  0  0  0  0  0  0  0
   -0.3560  -12.5590    9.6650 C   0  0  0  0  0  0  0  0  0  0  0  0
   -0.5950  -11.4370    8.8550 C   0  0  0  0  0  0  0  0  0  0  0  0
   -1.3360  -10.3570    9.3340 C   0  0  0  0  0  0  0  0  0  0  0  0
   -1.8480  -10.3820   10.6280 C   0  0  0  0  0  0  0  0  0  0  0  0
   -1.6190  -11.4900   11.4470 C   0  0  0  0  0  0  0  0  0  0  0  0
   -0.8740  -12.5850   10.9810 C   0  0  0  0  0  0  0  0  0  0  0  0
   -0.6340  -13.7060   11.7950 C   0  0  0  0  0  0  0  0  0  0  0  0
  1 17  1  0
  1  5  1  0
  2  8  1  0
  3  2  1  0
  4  3  1  0
  5  6  1  0
  5  4  1  0
  6  7  1  0
  7  2  1  0
  8 14  1  0
  9 10  2  0
 10 11  1  0
 12 11  2  0
 13 12  1  0
 14  9  1  0
 14 13  2  0
 16  9  1  0
 16 15  1  0
 17 18  1  0
 19 18  1  0
 20 21  1  0
 20 19  1  0
 21 22  2  0
 23 32  2  0
 23 21  1  0
 24 23  1  0
 25 26  1  0
 25 24  2  0
 26 31  1  0
 27 28  1  0
 27 26  2  0
 28 29  2  0
 29 30  1  0
 31 30  2  0
 31 32  1  0
M  END
$$$$
