lig_340
     RDKit          3D

 35 39  0  0  0  0  0  0  0  0999 V2000
    1.0920  -19.4870   13.5510 N   0  0  0  0  0  0  0  0  0  0  0  0
    1.6060  -20.0330   12.2980 C   0  0  0  0  0  0  0  0  0  0  0  0
    0.7000  -21.0280   11.5700 C   0  0  0  0  0  0  0  0  0  0  0  0
    0.0890  -22.1100   12.4620 C   0  0  0  0  0  0  0  0  0  0  0  0
   -0.7670  -21.5830   13.5430 N   0  0  0  0  0  0  0  0  0  0  0  0
   -1.3680  -20.2540   13.3490 C   0  0  0  0  0  0  0  0  0  0  0  0
   -0.3280  -19.1080   13.5410 C   0  0  0  0  0  0  0  0  0  0  0  0
   -1.6120  -22.5750   14.0810 C   0  0  0  0  0  0  0  0  0  0  0  0
   -2.1910  -23.5600   13.2600 C   0  0  0  0  0  0  0  0  0  0  0  0
   -3.0030  -24.5670   13.7910 C   0  0  0  0  0  0  0  0  0  0  0  0
   -3.2440  -24.6010   15.1580 C   0  0  0  0  0  0  0  0  0  0  0  0
   -2.6800  -23.6330   15.9860 C   0  0  0  0  0  0  0  0  0  0  0  0
   -2.9520  -23.7090   17.3710 O   0  0  0  0  0  0  0  0  0  0  0  0
   -2.4430  -22.7830   18.2660 C   0  0  0  0  0  0  0  0  0  0  0  0
   -2.6570  -22.8410   19.4720 O   0  0  0  0  0  0  0  0  0  0  0  0
   -1.6210  -21.7010   17.7050 C   0  0  0  0  0  0  0  0  0  0  0  0
   -1.3500  -21.6160   16.4000 C   0  0  0  0  0  0  0  0  0  0  0  0
   -1.8700  -22.6170   15.4700 C   0  0  0  0  0  0  0  0  0  0  0  0
   -4.0290  -25.5770   15.7020 O   0  0  0  0  0  0  0  0  0  0  0  0
    1.9690  -18.4750   14.1490 C   0  0  0  0  0  0  0  0  0  0  0  0
    2.3430  -17.2880   13.2480 C   0  0  0  0  0  0  0  0  0  0  0  0
    1.8320  -15.9700   13.8410 C   0  0  0  0  0  0  0  0  0  0  0  0
    0.3570  -15.7270   13.5250 C   0  0  0  0  0  0  0  0  0  0  0  0
    0.1450  -15.9380   12.1290 O   0  0  0  0  0  0  0  0  0  0  0  0
    1.9210  -12.1360    6.3550 O   0  0  0  0  0  0  0  0  0  0  0  0
    1.2190  -12.2580    7.3570 C   0  0  0  0  0  0  0  0  0  0  0  0
    0.0480  -11.3470    7.6390 C   0  0  0  0  0  0  0  0  0  0  0  0
   -0.1660  -11.1370    9.1280 C   0  0  0  0  0  0  0  0  0  0  0  0
   -0.1370  -12.4440    9.8710 C   0  0  0  0  0  0  0  0  0  0  0  0
   -0.8330  -12.6100   11.0710 C   0  0  0  0  0  0  0  0  0  0  0  0
   -0.7110  -13.8030   11.7840 C   0  0  0  0  0  0  0  0  0  0  0  0
    0.1160  -14.8330   11.3250 C   0  0  0  0  0  0  0  0  0  0  0  0
    0.8250  -14.6620   10.1350 C   0  0  0  0  0  0  0  0  0  0  0  0
    0.6870  -13.4750    9.4100 C   0  0  0  0  0  0  0  0  0  0  0  0
    1.4030  -13.3050    8.2210 N   0  0  0  0  0  0  0  0  0  0  0  0
  1 20  1  0
  2  1  1  0
  3  2  1  0
  3  4  1  0
  4  5  1  0
  5  8  1  0
  6  7  1  0
  6  5  1  0
  7  1  1  0
  8 18  2  0
  9 10  2  0
  9  8  1  0
 10 11  1  0
 11 19  1  0
 11 12  2  0
 12 13  1  0
 13 14  1  0
 14 15  2  0
 16 14  1  0
 17 16  2  0
 18 12  1  0
 18 17  1  0
 21 22  1  0
 21 20  1  0
 23 22  1  0
 24 23  1  0
 25 26  2  0
 26 27  1  0
 26 35  1  0
 27 28  1  0
 28 29  1  0
 29 30  1  0
 30 31  2  0
 32 31  1  0
 32 24  1  0
 33 32  2  0
 34 29  2  0
 34 33  1  0
 35 34  1  0
M  END
$$$$
