lig_013
     RDKit          3D

 32 36  0  0  0  0  0  0  0  0999 V2000
   21.0960   19.9990   13.1710 C   0  0  0  0  0  0  0  0  0  0  0  0
   21.8200   20.1510   11.9840 C   0  0  0  0  0  0  0  0  0  0  0  0
   21.6810   19.2190   10.9540 C   0  0  0  0  0  0  0  0  0  0  0  0
   20.8180   18.1280   11.0900 C   0  0  0  0  0  0  0  0  0  0  0  0
   20.0850   17.9790   12.2670 C   0  0  0  0  0  0  0  0  0  0  0  0
   20.2210   18.9140   13.3010 C   0  0  0  0  0  0  0  0  0  0  0  0
   21.6670   23.7090   17.2480 O   0  0  0  0  0  0  0  0  0  0  0  0
   21.5470   22.8830   16.3510 C   0  0  0  0  0  0  0  0  0  0  0  0
   22.4560   21.7180   16.2540 C   0  0  0  0  0  0  0  0  0  0  0  0
   22.2930   20.8370   15.2590 C   0  0  0  0  0  0  0  0  0  0  0  0
   21.2380   20.9880   14.2590 C   0  0  0  0  0  0  0  0  0  0  0  0
   20.4100   22.0570   14.3610 C   0  0  0  0  0  0  0  0  0  0  0  0
   20.5810   22.9670   15.3840 N   0  0  0  0  0  0  0  0  0  0  0  0
   19.3040   22.3460   13.4310 C   0  0  0  0  0  0  0  0  0  0  0  0
   17.9950   21.9350   13.7250 C   0  0  0  0  0  0  0  0  0  0  0  0
   16.9550   22.2140   12.8370 C   0  0  0  0  0  0  0  0  0  0  0  0
   17.2240   22.9060   11.6610 C   0  0  0  0  0  0  0  0  0  0  0  0
   16.2250   23.1720   10.8100 F   0  0  0  0  0  0  0  0  0  0  0  0
   18.5130   23.3280   11.3560 C   0  0  0  0  0  0  0  0  0  0  0  0
   19.5550   23.0500   12.2420 C   0  0  0  0  0  0  0  0  0  0  0  0
   20.7840   17.2930   10.0070 O   0  0  0  0  0  0  0  0  0  0  0  0
   21.3050   17.8040    8.7760 C   0  0  0  0  0  0  0  0  0  0  0  0
   22.0970   16.7310    8.0620 C   0  0  0  0  0  0  0  0  0  0  0  0
   22.3640   16.8360    6.7010 C   0  0  0  0  0  0  0  0  0  0  0  0
   23.1230   15.8440    6.0890 C   0  0  0  0  0  0  0  0  0  0  0  0
   23.6090   14.7740    6.8470 C   0  0  0  0  0  0  0  0  0  0  0  0
   24.3790   13.7480    6.2710 C   0  0  0  0  0  0  0  0  0  0  0  0
   24.8490   12.6960    7.0550 C   0  0  0  0  0  0  0  0  0  0  0  0
   24.5520   12.6660    8.4120 C   0  0  0  0  0  0  0  0  0  0  0  0
   23.7850   13.6870    8.9800 C   0  0  0  0  0  0  0  0  0  0  0  0
   23.3040   14.7470    8.2230 C   0  0  0  0  0  0  0  0  0  0  0  0
   22.5710   15.7070    8.8180 N   0  0  0  0  0  0  0  0  0  0  0  0
  1  6  2  0
  1 11  1  0
  2  1  1  0
  3  4  1  0
  3  2  2  0
  4  5  2  0
  5  6  1  0
  8  7  2  0
  9  8  1  0
 10  9  2  0
 11 12  2  0
 11 10  1  0
 12 13  1  0
 13  8  1  0
 14 15  1  0
 14 12  1  0
 16 15  2  0
 17 16  1  0
 18 17  1  0
 19 17  2  0
 19 20  1  0
 20 14  2  0
 21  4  1  0
 22 21  1  0
 23 22  1  0
 23 32  2  0
 24 23  1  0
 25 24  2  0
 25 26  1  0
 26 31  1  0
 27 26  2  0
 27 28  1  0
 28 29  2  0
 29 30  1  0
 31 32  1  0
 31 30  2  0
M  END
$$$$
