lig_198
     RDKit          3D

 29 32  0  0  1  0  0  0  0  0999 V2000
    1.5220  -19.3100   13.2660 C   0  0  0  0  0  0  0  0  0  0  0  0
    1.0040  -17.9480   13.0520 N   0  0  0  0  0  0  0  0  0  0  0  0
    0.0150  -17.9480   11.9460 C   0  0  0  0  0  0  0  0  0  0  0  0
   -0.5320  -16.5390   11.6120 C   0  0  0  0  0  0  0  0  0  0  0  0
    0.5890  -15.6320   11.2800 N   0  0  0  0  0  0  0  0  0  0  0  0
    1.5440  -15.5630   12.4080 C   0  0  0  0  0  0  0  0  0  0  0  0
    2.0820  -16.9790   12.7300 C   0  0  0  0  0  0  0  0  0  0  0  0
    0.1080  -14.3600   10.9140 C   0  0  0  0  0  0  0  0  0  0  0  0
   -0.6650  -13.6460   11.7660 N   0  0  0  0  0  0  0  0  0  0  0  0
   -1.1280  -12.4280   11.3730 C   0  0  0  0  0  0  0  0  0  0  0  0
   -0.8500  -11.8450   10.1530 C   0  0  0  0  0  0  0  0  0  0  0  0
   -0.0380  -12.5750    9.3250 C   0  0  0  0  0  0  0  0  0  0  0  0
    0.4390  -13.8240    9.6850 C   0  0  0  0  0  0  0  0  0  0  0  0
    1.2490  -14.3670    8.5730 C   0  0  0  0  0  0  0  0  0  0  0  0
    1.4440  -13.0840    7.7670 C   0  0  0  0  0  0  0  0  0  0  0  0
    0.3740  -12.1610    8.0850 O   0  0  0  0  0  0  0  0  0  0  0  0
    1.0060  -20.3080   12.2170 C   0  0  0  0  0  0  0  0  0  0  0  0
   -0.0380  -23.0930   15.3820 C   0  0  1  0  0  0  0  0  0  0  0  0
    1.1410  -23.4800   14.4720 C   0  0  0  0  0  0  0  0  0  0  0  0
    1.6850  -22.2790   13.7070 C   0  0  0  0  0  0  0  0  0  0  0  0
    0.6170  -21.7010   12.7600 C   0  0  1  0  0  0  0  0  0  0  0  0
   -0.8020  -21.7470   13.3630 C   0  0  0  0  0  0  0  0  0  0  0  0
   -0.7900  -21.8470   14.8870 C   0  0  0  0  0  0  0  0  0  0  0  0
   -1.1810  -24.0240   17.8040 O   0  0  0  0  0  0  0  0  0  0  0  0
   -1.4150  -24.6250   16.7620 C   0  0  0  0  0  0  0  0  0  0  0  0
   -0.9530  -24.2200   15.5260 N   0  0  0  0  0  0  0  0  0  0  0  0
   -2.2450  -25.8860   16.6920 C   0  0  0  0  0  0  0  0  0  0  0  0
   -3.6840  -25.5830   16.3180 C   0  0  0  0  0  0  0  0  0  0  0  0
   -3.7340  -25.2040   14.9450 O   0  0  0  0  0  0  0  0  0  0  0  0
  2  1  1  0
  3  2  1  0
  4  3  1  0
  5  4  1  0
  5  6  1  0
  6  7  1  0
  7  2  1  0
  8  5  1  0
  8  9  2  0
 10  9  1  0
 11 10  2  0
 12 13  2  0
 12 11  1  0
 13  8  1  0
 14 13  1  0
 15 16  1  0
 15 14  1  0
 16 12  1  0
 17  1  1  0
 18 26  1  6
 19 18  1  0
 20 19  1  0
 21 17  1  1
 21 22  1  0
 21 20  1  0
 22 23  1  0
 23 18  1  0
 25 24  2  0
 26 25  1  0
 27 25  1  0
 28 27  1  0
 29 28  1  0
M  END
$$$$
