lig_328
     RDKit          3D

 23 25  0  0  0  0  0  0  0  0999 V2000
    0.7400  -18.2450   12.7410 N   0  0  0  0  0  0  0  0  0  0  0  0
   -0.3260  -17.8740   11.7760 C   0  0  0  0  0  0  0  0  0  0  0  0
    0.0630  -16.8530   10.6800 C   0  0  0  0  0  0  0  0  0  0  0  0
    0.7160  -15.6510   11.2370 N   0  0  0  0  0  0  0  0  0  0  0  0
    1.0490  -15.7150   12.6710 C   0  0  0  0  0  0  0  0  0  0  0  0
    1.6560  -17.1010   12.9820 C   0  0  0  0  0  0  0  0  0  0  0  0
    0.2350  -14.4110   10.8010 C   0  0  0  0  0  0  0  0  0  0  0  0
   -0.6610  -13.7530   11.6650 C   0  0  0  0  0  0  0  0  0  0  0  0
   -1.2130  -12.5120   11.3430 C   0  0  0  0  0  0  0  0  0  0  0  0
   -0.8840  -11.8970   10.1400 C   0  0  0  0  0  0  0  0  0  0  0  0
   -0.0040  -12.5270    9.2620 C   0  0  0  0  0  0  0  0  0  0  0  0
    0.5520  -13.7720    9.5850 C   0  0  0  0  0  0  0  0  0  0  0  0
    1.6220  -14.4680    8.4140 Cl  0  0  0  0  0  0  0  0  0  0  0  0
    1.5080  -19.3940   12.2860 C   0  0  0  0  0  0  0  0  0  0  0  0
   -0.1190  -21.3760   11.1730 O   0  0  0  0  0  0  0  0  0  0  0  0
    0.2100  -21.4640   12.3510 C   0  0  0  0  0  0  0  0  0  0  0  0
    0.9690  -20.5140   12.9890 N   0  0  0  0  0  0  0  0  0  0  0  0
   -0.2380  -22.6240   13.1720 C   0  0  0  0  0  0  0  0  0  0  0  0
    0.6530  -23.1460   14.1190 C   0  0  0  0  0  0  0  0  0  0  0  0
    0.2820  -24.2340   14.9120 C   0  0  0  0  0  0  0  0  0  0  0  0
   -0.9850  -24.7980   14.7700 C   0  0  0  0  0  0  0  0  0  0  0  0
   -1.8830  -24.2740   13.8420 C   0  0  0  0  0  0  0  0  0  0  0  0
   -1.5150  -23.1860   13.0450 C   0  0  0  0  0  0  0  0  0  0  0  0
  1  6  1  0
  2  1  1  0
  3  4  1  0
  3  2  1  0
  4  5  1  0
  5  6  1  0
  7  4  1  0
  7  8  2  0
  9  8  1  0
 10  9  2  0
 11 12  2  0
 11 10  1  0
 12  7  1  0
 13 12  1  0
 14  1  1  0
 14 17  1  0
 15 16  2  0
 16 17  1  0
 16 18  1  0
 18 19  2  0
 19 20  1  0
 21 20  2  0
 22 21  1  0
 23 18  1  0
 23 22  2  0
M  END
$$$$
