lig_020
     RDKit          3D

 25 28  0  0  1  0  0  0  0  0999 V2000
  -32.2080    9.2570    7.9020 C   0  0  1  0  0  0  0  0  0  0  0  0
  -26.7190    7.1320    7.3640 O   0  0  0  0  0  0  0  0  0  0  0  0
  -27.6080    7.9610    7.2650 C   0  0  0  0  0  0  0  0  0  0  0  0
  -27.4830    9.2060    6.7010 N   0  0  0  0  0  0  0  0  0  0  0  0
  -28.6450    9.9830    6.6800 C   0  0  0  0  0  0  0  0  0  0  0  0
  -28.7600   11.2570    6.1480 C   0  0  0  0  0  0  0  0  0  0  0  0
  -30.0000   11.8850    6.1720 C   0  0  0  0  0  0  0  0  0  0  0  0
  -31.1080   11.2400    6.7450 C   0  0  0  0  0  0  0  0  0  0  0  0
  -31.0020    9.9530    7.3080 C   0  0  0  0  0  0  0  0  0  0  0  0
  -29.7490    9.3400    7.2540 C   0  0  0  0  0  0  0  0  0  0  0  0
  -29.2630    7.7260    7.8300 S   0  0  0  0  0  0  0  0  0  0  0  0
  -27.7170   11.9370    5.5980 O   0  0  0  0  0  0  0  0  0  0  0  0
  -33.2570   10.2110    8.1120 O   0  0  0  0  0  0  0  0  0  0  0  0
  -32.7170    8.1210    6.9790 C   0  0  0  0  0  0  0  0  0  0  0  0
  -33.9040    7.3910    7.4540 N   0  0  0  0  0  0  0  0  0  0  0  0
  -33.7890    5.9420    7.4550 C   0  0  2  0  0  0  0  0  0  0  0  0
  -34.2910    5.2510    6.1810 C   0  0  0  0  0  0  0  0  0  0  0  0
  -34.6110    3.8140    6.5980 C   0  0  0  0  0  0  0  0  0  0  0  0
  -34.4240    3.7630    8.1130 C   0  0  0  0  0  0  0  0  0  0  0  0
  -34.5670    5.2200    8.5860 C   0  0  2  0  0  0  0  0  0  0  0  0
  -36.0460    5.6460    8.7670 C   0  0  0  0  0  0  0  0  0  0  0  0
  -37.0330    4.4710    8.7440 C   0  0  0  0  0  0  0  0  0  0  0  0
  -38.2840    5.0530    9.3790 C   0  0  0  0  0  0  0  0  0  0  0  0
  -37.7510    5.8820   10.5330 C   0  0  0  0  0  0  0  0  0  0  0  0
  -36.3450    6.3210   10.1190 C   0  0  0  0  0  0  0  0  0  0  0  0
  1 14  1  0
  1 13  1  6
  3  2  2  0
  3 11  1  0
  4  3  1  0
  5  4  1  0
  5 10  1  0
  6  7  1  0
  6  5  2  0
  7  8  2  0
  8  9  1  0
  9  1  1  0
 10  9  2  0
 10 11  1  0
 12  6  1  0
 14 15  1  0
 16 15  1  6
 16 20  1  0
 17 18  1  0
 17 16  1  0
 18 19  1  0
 19 20  1  0
 20 21  1  6
 21 25  1  0
 22 21  1  0
 22 23  1  0
 23 24  1  0
 25 24  1  0
M  END
$$$$
