lig_230
     RDKit          3D

 30 33  0  0  1  0  0  0  0  0999 V2000
    1.8890  -16.8580   14.2330 N   0  0  0  0  0  0  0  0  0  0  0  0
    0.5070  -16.3740   14.1090 C   0  0  0  0  0  0  0  0  0  0  0  0
   -0.0920  -16.5150   12.7120 C   0  0  0  0  0  0  0  0  0  0  0  0
    0.7730  -15.8450   11.6310 C   0  0  0  0  0  0  0  0  0  0  0  0
    2.2430  -15.7240   12.0530 C   0  0  0  0  0  0  0  0  0  0  0  0
    2.6310  -16.8850   12.9640 C   0  0  0  0  0  0  0  0  0  0  0  0
    0.1900  -14.5480   11.1400 C   0  0  0  0  0  0  0  0  0  0  0  0
   -0.7100  -13.9200   11.9130 N   0  0  0  0  0  0  0  0  0  0  0  0
   -1.0590  -12.7650   11.2410 O   0  0  0  0  0  0  0  0  0  0  0  0
   -0.3750  -12.6940   10.0720 C   0  0  0  0  0  0  0  0  0  0  0  0
   -0.4690  -11.6680    9.1360 C   0  0  0  0  0  0  0  0  0  0  0  0
    0.3330  -11.8070    8.0070 C   0  0  0  0  0  0  0  0  0  0  0  0
    0.2920  -10.8540    7.0640 F   0  0  0  0  0  0  0  0  0  0  0  0
    1.1680  -12.9090    7.8370 C   0  0  0  0  0  0  0  0  0  0  0  0
    1.9230  -13.0080    6.7340 F   0  0  0  0  0  0  0  0  0  0  0  0
    1.2410  -13.9250    8.7950 C   0  0  0  0  0  0  0  0  0  0  0  0
    0.4430  -13.8080    9.9490 C   0  0  0  0  0  0  0  0  0  0  0  0
    1.9570  -18.1440   14.9430 C   0  0  0  0  0  0  0  0  0  0  0  0
    0.9960  -19.2220   14.4110 C   0  0  0  0  0  0  0  0  0  0  0  0
   -0.6730  -21.9540   13.1250 C   0  0  1  0  0  0  0  0  0  0  0  0
    0.4680  -22.3270   14.0840 C   0  0  0  0  0  0  0  0  0  0  0  0
    1.7810  -21.6000   13.7840 C   0  0  0  0  0  0  0  0  0  0  0  0
    1.5770  -20.1530   13.3190 C   0  0  1  0  0  0  0  0  0  0  0  0
    0.6990  -20.1090   12.0480 C   0  0  0  0  0  0  0  0  0  0  0  0
   -0.1410  -21.3680   11.8150 C   0  0  0  0  0  0  0  0  0  0  0  0
   -2.9690  -22.7040   14.6220 O   0  0  0  0  0  0  0  0  0  0  0  0
   -2.6520  -23.3520   13.6270 C   0  0  0  0  0  0  0  0  0  0  0  0
   -1.5240  -23.1100   12.8720 N   0  0  0  0  0  0  0  0  0  0  0  0
   -3.4930  -24.5350   13.1450 C   0  0  0  0  0  0  0  0  0  0  0  0
   -3.3100  -24.7880   11.7610 O   0  0  0  0  0  0  0  0  0  0  0  0
  1 18  1  0
  2  1  1  0
  3  2  1  0
  4  7  1  0
  4  5  1  0
  4  3  1  0
  5  6  1  0
  6  1  1  0
  7  8  2  0
  9  8  1  0
 10  9  1  0
 11 10  1  0
 12 11  2  0
 13 12  1  0
 14 12  1  0
 14 16  2  0
 15 14  1  0
 16 17  1  0
 17 10  2  0
 17  7  1  0
 19 18  1  0
 20 28  1  6
 20 21  1  0
 22 21  1  0
 23 22  1  0
 23 19  1  1
 24 23  1  0
 25 24  1  0
 25 20  1  0
 27 26  2  0
 28 27  1  0
 29 27  1  0
 30 29  1  0
M  END
$$$$
