lig_145
     RDKit          3D

 32 36  0  0  1  0  0  0  0  0999 V2000
   18.5970   20.2300   12.5260 C   0  0  2  0  0  0  0  0  0  0  0  0
   19.6720   20.6700   13.4860 C   0  0  0  0  0  0  0  0  0  0  0  0
   20.8290   19.9980   13.6190 C   0  0  0  0  0  0  0  0  0  0  0  0
   21.8140   20.3640   14.6620 C   0  0  0  0  0  0  0  0  0  0  0  0
   22.0730   21.6150   15.2260 C   0  0  0  0  0  0  0  0  0  0  0  0
   23.0450   21.7510   16.2290 C   0  0  0  0  0  0  0  0  0  0  0  0
   23.7840   20.6520   16.7030 C   0  0  0  0  0  0  0  0  0  0  0  0
   23.5120   19.4100   16.1250 C   0  0  0  0  0  0  0  0  0  0  0  0
   24.0320   18.1500   16.3360 N   0  0  0  0  0  0  0  0  0  0  0  0
   23.4300   17.2340   15.4970 C   0  0  0  0  0  0  0  0  0  0  0  0
   22.5080   17.9110   14.7360 C   0  0  0  0  0  0  0  0  0  0  0  0
   22.5570   19.2700   15.1340 C   0  0  0  0  0  0  0  0  0  0  0  0
   21.5600   17.5040   13.6570 C   0  0  0  0  0  0  0  0  0  0  0  0
   21.2050   18.7550   12.7750 C   0  0  1  0  0  0  0  0  0  0  0  0
   20.1690   18.4460   11.7610 N   0  0  0  0  0  0  0  0  0  0  0  0
   20.3690   17.4970   10.7540 C   0  0  0  0  0  0  0  0  0  0  0  0
   19.4340   16.8530   10.2860 O   0  0  0  0  0  0  0  0  0  0  0  0
   21.6800   17.3820   10.3500 N   0  0  0  0  0  0  0  0  0  0  0  0
   18.7860   18.7650   12.1110 C   0  0  0  0  0  0  0  0  0  0  0  0
   22.2310   16.3910    9.5120 C   0  0  0  0  0  0  0  0  0  0  0  0
   22.2520   16.6510    8.1360 C   0  0  0  0  0  0  0  0  0  0  0  0
   22.8000   15.7240    7.2450 C   0  0  0  0  0  0  0  0  0  0  0  0
   23.3380   14.5320    7.7240 C   0  0  0  0  0  0  0  0  0  0  0  0
   23.3320   14.2720    9.0920 C   0  0  0  0  0  0  0  0  0  0  0  0
   22.7830   15.1990    9.9840 C   0  0  0  0  0  0  0  0  0  0  0  0
   17.6540   22.2080   11.2690 N   0  0  0  0  0  0  0  0  0  0  0  0
   18.5580   21.1390   11.2820 C   0  0  0  0  0  0  0  0  0  0  0  0
   19.2910   20.9180   10.3130 O   0  0  0  0  0  0  0  0  0  0  0  0
   16.8710   24.3530   10.2560 C   0  0  0  0  0  0  0  0  0  0  0  0
   17.6150   23.0390   10.0620 C   0  0  0  0  0  0  0  0  0  0  0  0
   16.8470   22.6440   12.4130 C   0  0  0  0  0  0  0  0  0  0  0  0
   17.6140   23.5320   13.3780 C   0  0  0  0  0  0  0  0  0  0  0  0
  1 27  1  6
  1  2  1  0
  2  3  2  0
  3  4  1  0
  4 12  2  0
  4  5  1  0
  5  6  2  0
  6  7  1  0
  8  9  1  0
  8  7  2  0
 10  9  1  0
 11 12  1  0
 11 10  2  0
 12  8  1  0
 13 11  1  0
 14  3  1  0
 14 13  1  1
 15 19  1  0
 15 14  1  0
 16 15  1  0
 17 16  2  0
 18 16  1  0
 19  1  1  0
 20 25  1  0
 20 18  1  0
 21 20  2  0
 22 23  2  0
 22 21  1  0
 23 24  1  0
 24 25  2  0
 26 27  1  0
 26 31  1  0
 28 27  2  0
 30 29  1  0
 30 26  1  0
 31 32  1  0
M  END
$$$$
