lig_218
     RDKit          3D

 31 35  0  0  1  0  0  0  0  0999 V2000
    1.6320    8.5340   18.2160 N   0  0  0  0  0  0  0  0  0  0  0  0
    0.5900    7.6880   17.9340 C   0  0  0  0  0  0  0  0  0  0  0  0
    0.5970    6.4450   18.3390 N   0  0  0  0  0  0  0  0  0  0  0  0
   -0.5020    5.6000   18.0200 C   0  0  0  0  0  0  0  0  0  0  0  0
   -0.5180    4.2750   18.4230 C   0  0  0  0  0  0  0  0  0  0  0  0
   -1.5730    3.4390   18.1210 C   0  0  0  0  0  0  0  0  0  0  0  0
   -2.6740    3.8670   17.4060 C   0  0  0  0  0  0  0  0  0  0  0  0
   -2.7000    5.1980   16.9810 C   0  0  0  0  0  0  0  0  0  0  0  0
   -1.6260    6.0530   17.2850 C   0  0  0  0  0  0  0  0  0  0  0  0
   -1.6000    7.4400   16.8750 C   0  0  0  0  0  0  0  0  0  0  0  0
   -2.4590    8.1890   16.2190 N   0  0  0  0  0  0  0  0  0  0  0  0
   -1.8360    9.4200   16.1930 C   0  0  0  0  0  0  0  0  0  0  0  0
   -0.6390    9.4700   16.8010 N   0  0  0  0  0  0  0  0  0  0  0  0
   -0.5090    8.1880   17.2100 N   0  0  0  0  0  0  0  0  0  0  0  0
   -1.3950    2.1800   18.6060 O   0  0  0  0  0  0  0  0  0  0  0  0
   -0.1170    2.3310   19.2370 C   0  0  0  0  0  0  0  0  0  0  0  0
   -0.2480    2.0160   20.5490 F   0  0  0  0  0  0  0  0  0  0  0  0
    0.7420    1.4390   18.6850 F   0  0  0  0  0  0  0  0  0  0  0  0
    0.4550    3.6380   19.1360 O   0  0  0  0  0  0  0  0  0  0  0  0
   -2.4590   10.6170   15.5430 C   0  0  2  0  0  0  0  0  0  0  0  0
   -1.7590   10.9780   14.2170 C   0  0  0  0  0  0  0  0  0  0  0  0
   -0.8400   12.1810   14.3890 C   0  0  0  0  0  0  0  0  0  0  0  0
   -1.6050   13.4030   14.9190 C   0  0  0  0  0  0  0  0  0  0  0  0
   -2.7320   13.0740   15.8120 N   0  0  0  0  0  0  0  0  0  0  0  0
   -2.4870   11.8080   16.5250 C   0  0  0  0  0  0  0  0  0  0  0  0
   -3.0450   14.1640   16.7520 C   0  0  0  0  0  0  0  0  0  0  0  0
   -2.0330   15.3060   16.6800 C   0  0  0  0  0  0  0  0  0  0  0  0
   -1.8070   15.8950   18.0500 C   0  0  0  0  0  0  0  0  0  0  0  0
   -2.2230   15.0390   19.0100 F   0  0  0  0  0  0  0  0  0  0  0  0
   -0.5020   16.1560   18.2720 F   0  0  0  0  0  0  0  0  0  0  0  0
   -2.4950   17.0470   18.2070 F   0  0  0  0  0  0  0  0  0  0  0  0
  2  1  1  0
  2  3  2  0
  4  3  1  0
  4  5  1  0
  5 19  1  0
  6  5  2  0
  6 15  1  0
  7  6  1  0
  8  9  1  0
  8  7  2  0
  9  4  2  0
 10 14  1  0
 10  9  1  0
 11 10  2  0
 12 11  1  0
 12 13  2  0
 13 14  1  0
 14  2  1  0
 15 16  1  0
 16 17  1  0
 18 16  1  0
 19 16  1  0
 20 12  1  1
 20 25  1  0
 21 22  1  0
 21 20  1  0
 22 23  1  0
 23 24  1  0
 24 25  1  0
 24 26  1  0
 27 26  1  0
 27 28  1  0
 28 31  1  0
 28 30  1  0
 28 29  1  0
M  END
$$$$
