lig_083
     RDKit          3D

 22 25  0  0  0  0  0  0  0  0999 V2000
   22.4070   16.2880    8.7800 C   0  0  0  0  0  0  0  0  0  0  0  0
   22.1730   16.1850   10.1080 N   0  0  0  0  0  0  0  0  0  0  0  0
   21.5360   17.2050   10.7030 C   0  0  0  0  0  0  0  0  0  0  0  0
   21.1430   18.3240   10.0700 N   0  0  0  0  0  0  0  0  0  0  0  0
   21.4030   18.4070    8.7470 C   0  0  0  0  0  0  0  0  0  0  0  0
   22.0300   17.3980    8.0350 C   0  0  0  0  0  0  0  0  0  0  0  0
   22.3690   17.5670    6.5810 C   0  0  0  0  0  0  0  0  0  0  0  0
   21.6340   18.6550    5.9180 N   0  0  0  0  0  0  0  0  0  0  0  0
   21.6750   19.8730    6.7270 C   0  0  0  0  0  0  0  0  0  0  0  0
   20.9400   19.6580    8.0500 C   0  0  0  0  0  0  0  0  0  0  0  0
   25.1220   11.8740    6.6380 F   0  0  0  0  0  0  0  0  0  0  0  0
   24.4710   12.9270    7.1480 C   0  0  0  0  0  0  0  0  0  0  0  0
   23.9580   13.8940    6.2920 C   0  0  0  0  0  0  0  0  0  0  0  0
   23.2790   14.9930    6.8230 C   0  0  0  0  0  0  0  0  0  0  0  0
   23.1180   15.1350    8.2130 C   0  0  0  0  0  0  0  0  0  0  0  0
   23.6360   14.1340    9.0540 C   0  0  0  0  0  0  0  0  0  0  0  0
   24.3140   13.0350    8.5240 C   0  0  0  0  0  0  0  0  0  0  0  0
   21.2750   17.0880   12.1850 C   0  0  0  0  0  0  0  0  0  0  0  0
   19.8330   17.4550   12.5730 C   0  0  0  0  0  0  0  0  0  0  0  0
   19.9380   18.8130   13.2540 C   0  0  0  0  0  0  0  0  0  0  0  0
   21.2610   18.7240   13.9930 C   0  0  0  0  0  0  0  0  0  0  0  0
   22.1830   18.0270   13.0000 C   0  0  0  0  0  0  0  0  0  0  0  0
  1  2  2  0
  2  3  1  0
  3 18  1  0
  4  3  2  0
  5  4  1  0
  6  5  2  0
  6  1  1  0
  7  6  1  0
  8  7  1  0
  8  9  1  0
  9 10  1  0
 10  5  1  0
 11 12  1  0
 12 17  2  0
 13 14  2  0
 13 12  1  0
 14 15  1  0
 15  1  1  0
 15 16  2  0
 17 16  1  0
 18 19  1  0
 18 22  1  0
 19 20  1  0
 20 21  1  0
 22 21  1  0
M  END
$$$$
