lig_416
     RDKit          3D

 31 34  0  0  0  0  0  0  0  0999 V2000
   -0.3270  -20.8990   15.7080 N   0  0  0  0  0  0  0  0  0  0  0  0
   -0.9270  -22.1620   15.8540 C   0  0  0  0  0  0  0  0  0  0  0  0
   -1.0760  -22.7120   16.9480 O   0  0  0  0  0  0  0  0  0  0  0  0
   -1.5850  -22.8240   14.7060 C   0  0  0  0  0  0  0  0  0  0  0  0
   -2.9210  -23.2240   14.8800 C   0  0  0  0  0  0  0  0  0  0  0  0
   -3.6040  -23.8760   13.8550 C   0  0  0  0  0  0  0  0  0  0  0  0
   -2.9530  -24.1450   12.6540 C   0  0  0  0  0  0  0  0  0  0  0  0
   -1.6210  -23.7660   12.4820 C   0  0  0  0  0  0  0  0  0  0  0  0
   -0.9280  -23.1050   13.5100 C   0  0  0  0  0  0  0  0  0  0  0  0
    0.7780  -22.6490   13.2280 S   0  0  0  0  0  0  0  0  0  0  0  0
    1.6280  -23.0150   14.6000 O   0  0  0  0  0  0  0  0  0  0  0  0
    0.3870  -20.8870   13.3040 C   0  0  0  0  0  0  0  0  0  0  0  0
    0.6240  -20.1560   12.1230 C   0  0  0  0  0  0  0  0  0  0  0  0
    0.4530  -18.7740   12.0850 C   0  0  0  0  0  0  0  0  0  0  0  0
    0.0560  -18.1040   13.2400 C   0  0  0  0  0  0  0  0  0  0  0  0
   -0.1970  -18.8300   14.4130 C   0  0  0  0  0  0  0  0  0  0  0  0
   -0.0520  -20.2290   14.4700 C   0  0  0  0  0  0  0  0  0  0  0  0
   -0.1440  -16.6280   13.2630 C   0  0  0  0  0  0  0  0  0  0  0  0
   -0.1890  -16.0370   14.3360 O   0  0  0  0  0  0  0  0  0  0  0  0
   -0.2350  -16.0060   12.0380 N   0  0  0  0  0  0  0  0  0  0  0  0
   -0.2680  -14.5640   11.9300 C   0  0  0  0  0  0  0  0  0  0  0  0
   -0.0150  -14.1310   10.5080 C   0  0  0  0  0  0  0  0  0  0  0  0
    0.4720  -15.0360    9.5580 C   0  0  0  0  0  0  0  0  0  0  0  0
    0.7260  -14.6140    8.2510 C   0  0  0  0  0  0  0  0  0  0  0  0
    0.5070  -13.2870    7.8720 C   0  0  0  0  0  0  0  0  0  0  0  0
    0.0300  -12.3790    8.8170 C   0  0  0  0  0  0  0  0  0  0  0  0
   -0.2270  -12.8000   10.1270 C   0  0  0  0  0  0  0  0  0  0  0  0
    0.7990  -13.0100    6.5650 O   0  0  0  0  0  0  0  0  0  0  0  0
    1.5540  -11.8310    6.3120 C   0  0  0  0  0  0  0  0  0  0  0  0
   -1.0810  -19.7050   17.7690 C   0  0  0  0  0  0  0  0  0  0  0  0
    0.0900  -20.2480   16.9570 C   0  0  0  0  0  0  0  0  0  0  0  0
  1  2  1  0
  1 31  1  0
  2  3  2  0
  4  5  2  0
  4  2  1  0
  6  5  1  0
  7  6  2  0
  8  7  1  0
  8  9  2  0
  9  4  1  0
 10 12  1  0
 10  9  1  0
 10 11  2  0
 12 17  2  0
 13 12  1  0
 14 13  2  0
 14 15  1  0
 15 18  1  0
 15 16  2  0
 16 17  1  0
 17  1  1  0
 18 19  2  0
 20 18  1  0
 21 20  1  0
 22 21  1  0
 23 22  1  0
 24 23  2  0
 25 24  1  0
 25 26  2  0
 26 27  1  0
 27 22  2  0
 28 25  1  0
 29 28  1  0
 31 30  1  0
M  END
$$$$
