lig_451
     RDKit          3D

 26 29  0  0  0  0  0  0  0  0999 V2000
   -5.3410    9.3840   14.8840 C   0  0  0  0  0  0  0  0  0  0  0  0
   -4.1760    8.7630   15.6140 C   0  0  0  0  0  0  0  0  0  0  0  0
   -4.3940    7.4790   16.0800 N   0  0  0  0  0  0  0  0  0  0  0  0
   -3.4440    6.7480   16.6890 C   0  0  0  0  0  0  0  0  0  0  0  0
   -3.5100    5.5160   17.1240 N   0  0  0  0  0  0  0  0  0  0  0  0
   -2.2680    5.2660   17.6530 C   0  0  0  0  0  0  0  0  0  0  0  0
   -1.7810    4.0950   18.2530 C   0  0  0  0  0  0  0  0  0  0  0  0
   -0.4620    4.0740   18.7220 C   0  0  0  0  0  0  0  0  0  0  0  0
    0.3580    5.1960   18.5950 C   0  0  0  0  0  0  0  0  0  0  0  0
   -0.1090    6.3730   18.0010 C   0  0  0  0  0  0  0  0  0  0  0  0
   -1.4310    6.3760   17.5380 C   0  0  0  0  0  0  0  0  0  0  0  0
   -2.2150    7.3290   16.9090 N   0  0  0  0  0  0  0  0  0  0  0  0
   -1.9000    8.6360   16.5350 C   0  0  0  0  0  0  0  0  0  0  0  0
   -0.8050    9.1070   16.8080 O   0  0  0  0  0  0  0  0  0  0  0  0
   -2.9830    9.3770   15.7930 C   0  0  0  0  0  0  0  0  0  0  0  0
   -2.6070   10.7620   15.3180 C   0  0  0  0  0  0  0  0  0  0  0  0
   -1.5840   10.7120   14.1800 C   0  0  0  0  0  0  0  0  0  0  0  0
   -1.0360   12.0230   13.9870 O   0  0  0  0  0  0  0  0  0  0  0  0
   -0.3110   12.5170   15.0290 C   0  0  0  0  0  0  0  0  0  0  0  0
    0.6540   11.9600   15.5310 O   0  0  0  0  0  0  0  0  0  0  0  0
   -0.8790   13.8590   15.4580 C   0  0  0  0  0  0  0  0  0  0  0  0
   -1.9760   14.3150   14.4790 C   0  0  0  0  0  0  0  0  0  0  0  0
   -3.0860   15.1390   15.1340 C   0  0  0  0  0  0  0  0  0  0  0  0
   -2.5450   16.0050   16.2630 C   0  0  0  0  0  0  0  0  0  0  0  0
   -1.9130   15.1640   17.3730 C   0  0  0  0  0  0  0  0  0  0  0  0
   -1.4010   13.8040   16.8960 C   0  0  0  0  0  0  0  0  0  0  0  0
  1  2  1  0
  2 15  2  0
  2  3  1  0
  3  4  1  0
  4 12  1  0
  4  5  2  0
  5  6  1  0
  6  7  2  0
  7  8  1  0
  9  8  2  0
 10  9  1  0
 11  6  1  0
 11 10  2  0
 12 11  1  0
 13 14  2  0
 13 12  1  0
 15 13  1  0
 16 15  1  0
 17 16  1  0
 18 17  1  0
 18 19  1  0
 19 21  1  0
 19 20  2  0
 21 26  1  0
 22 23  1  0
 22 21  1  0
 23 24  1  0
 24 25  1  0
 26 25  1  0
M  END
$$$$
