lig_058
     RDKit          3D

 23 26  0  0  0  0  0  0  0  0999 V2000
    0.2360    8.0210   17.6310 C   0  0  0  0  0  0  0  0  0  0  0  0
   -0.0170    6.7270   17.9090 N   0  0  0  0  0  0  0  0  0  0  0  0
   -1.2060    6.1870   17.5560 C   0  0  0  0  0  0  0  0  0  0  0  0
   -2.2160    6.8350   16.9440 N   0  0  0  0  0  0  0  0  0  0  0  0
   -1.9290    8.1220   16.7010 C   0  0  0  0  0  0  0  0  0  0  0  0
   -3.0290    9.1780   15.9440 S   0  0  0  0  0  0  0  0  0  0  0  0
   -1.8800   10.4550   16.0810 C   0  0  0  0  0  0  0  0  0  0  0  0
   -0.7370   10.1340   16.6550 N   0  0  0  0  0  0  0  0  0  0  0  0
   -0.7570    8.7890   17.0040 C   0  0  0  0  0  0  0  0  0  0  0  0
   -1.4200    4.7560   17.8770 C   0  0  0  0  0  0  0  0  0  0  0  0
   -0.7820    4.1450   18.9730 C   0  0  0  0  0  0  0  0  0  0  0  0
   -0.9870    2.7980   19.2800 C   0  0  0  0  0  0  0  0  0  0  0  0
   -1.8390    2.0240   18.4950 C   0  0  0  0  0  0  0  0  0  0  0  0
   -2.4830    2.5820   17.3870 C   0  0  0  0  0  0  0  0  0  0  0  0
   -2.2740    3.9440   17.1000 C   0  0  0  0  0  0  0  0  0  0  0  0
   -3.4390    1.7820   16.5410 C   0  0  0  0  0  0  0  0  0  0  0  0
   -3.0760    1.8270   15.1670 O   0  0  0  0  0  0  0  0  0  0  0  0
   -2.1440   11.7900   15.6070 C   0  0  0  0  0  0  0  0  0  0  0  0
   -1.7230   12.4280   14.4470 C   0  0  0  0  0  0  0  0  0  0  0  0
   -2.2610   13.7390   14.4590 C   0  0  0  0  0  0  0  0  0  0  0  0
   -2.9820   13.8380   15.6210 C   0  0  0  0  0  0  0  0  0  0  0  0
   -2.9200   12.6770   16.3170 O   0  0  0  0  0  0  0  0  0  0  0  0
    1.4720    8.5390   17.9970 N   0  0  0  0  0  0  0  0  0  0  0  0
  1  2  1  0
  1 23  1  0
  3 10  1  0
  3  2  2  0
  4  3  1  0
  5  4  2  0
  5  9  1  0
  6  7  1  0
  6  5  1  0
  7  8  2  0
  8  9  1  0
  9  1  2  0
 10 11  2  0
 11 12  1  0
 13 12  2  0
 14 13  1  0
 15 14  2  0
 15 10  1  0
 16 14  1  0
 17 16  1  0
 18  7  1  0
 18 22  1  0
 19 20  1  0
 19 18  2  0
 20 21  2  0
 21 22  1  0
M  END
$$$$
