lig_112
     RDKit          3D

 28 30  0  0  0  0  0  0  0  0999 V2000
  -24.2850    8.6780    6.4740 C   0  0  0  0  0  0  0  0  0  0  0  0
  -24.7700    7.3160    6.5090 N   0  0  0  0  0  0  0  0  0  0  0  0
  -26.0200    7.1680    7.0980 C   0  0  0  0  0  0  0  0  0  0  0  0
  -26.1920    6.0500    7.8080 N   0  0  0  0  0  0  0  0  0  0  0  0
  -27.3740    5.8600    8.4120 C   0  0  0  0  0  0  0  0  0  0  0  0
  -27.6260    4.6860    9.1360 N   0  0  0  0  0  0  0  0  0  0  0  0
  -28.4000    6.7690    8.2740 C   0  0  0  0  0  0  0  0  0  0  0  0
  -28.1540    7.9040    7.5270 C   0  0  0  0  0  0  0  0  0  0  0  0
  -26.9530    8.1110    6.9430 N   0  0  0  0  0  0  0  0  0  0  0  0
  -29.1810    8.9520    7.3250 C   0  0  0  0  0  0  0  0  0  0  0  0
  -28.8490   10.2940    7.1220 C   0  0  0  0  0  0  0  0  0  0  0  0
  -29.8590   11.2350    6.9380 C   0  0  0  0  0  0  0  0  0  0  0  0
  -31.1840   10.8210    6.9620 C   0  0  0  0  0  0  0  0  0  0  0  0
  -31.4430    9.4790    7.1670 C   0  0  0  0  0  0  0  0  0  0  0  0
  -30.4810    8.5440    7.3490 N   0  0  0  0  0  0  0  0  0  0  0  0
  -26.5050    3.7840    9.3640 C   0  0  0  0  0  0  0  0  0  0  0  0
  -26.7900    2.7810   10.4630 C   0  0  0  0  0  0  0  0  0  0  0  0
  -28.1110    2.3420   10.6570 C   0  0  0  0  0  0  0  0  0  0  0  0
  -28.4220    1.4130   11.6530 C   0  0  0  0  0  0  0  0  0  0  0  0
  -27.4210    0.9130   12.4800 C   0  0  0  0  0  0  0  0  0  0  0  0
  -26.1020    1.3260   12.2930 C   0  0  0  0  0  0  0  0  0  0  0  0
  -25.7900    2.2550   11.2930 C   0  0  0  0  0  0  0  0  0  0  0  0
  -24.1320    2.7170   11.1270 Cl  0  0  0  0  0  0  0  0  0  0  0  0
  -27.7010   -0.0350   13.5050 N   0  0  0  0  0  0  0  0  0  0  0  0
  -28.9230    0.2520   14.6260 S   0  0  0  0  0  0  0  0  0  0  0  0
  -28.3240   -0.6040   16.0710 C   0  0  0  0  0  0  0  0  0  0  0  0
  -30.0750   -0.4770   14.1380 O   0  0  0  0  0  0  0  0  0  0  0  0
  -29.0010    1.6650   14.9240 O   0  0  0  0  0  0  0  0  0  0  0  0
  1  2  1  0
  2  3  1  0
  3  4  2  0
  4  5  1  0
  5  6  1  0
  6 16  1  0
  7  5  2  0
  8  7  1  0
  9  3  1  0
  9  8  2  0
 10 15  1  0
 10  8  1  0
 11 10  2  0
 12 13  2  0
 12 11  1  0
 13 14  1  0
 14 15  2  0
 16 17  1  0
 17 18  1  0
 17 22  2  0
 18 19  2  0
 19 20  1  0
 20 24  1  0
 21 20  2  0
 22 21  1  0
 23 22  1  0
 24 25  1  0
 25 28  2  0
 25 26  1  0
 27 25  2  0
M  END
$$$$
