lig_121
     RDKit          3D

 29 33  0  0  0  0  0  0  0  0999 V2000
   -5.8390   11.1590   15.2450 N   0  0  0  0  0  0  0  0  0  0  0  0
   -4.5890   10.7240   15.6200 C   0  0  0  0  0  0  0  0  0  0  0  0
   -3.6230   11.6480   15.7400 N   0  0  0  0  0  0  0  0  0  0  0  0
   -2.3720   11.2490   16.1000 C   0  0  0  0  0  0  0  0  0  0  0  0
   -2.1420    9.9260   16.3510 C   0  0  0  0  0  0  0  0  0  0  0  0
   -3.2070    9.0530   16.2190 C   0  0  0  0  0  0  0  0  0  0  0  0
   -4.4420    9.4200   15.8670 N   0  0  0  0  0  0  0  0  0  0  0  0
   -2.8050    7.6950   16.5400 C   0  0  0  0  0  0  0  0  0  0  0  0
   -3.4800    6.4730   16.5520 C   0  0  0  0  0  0  0  0  0  0  0  0
   -2.7430    5.3390   16.9690 C   0  0  0  0  0  0  0  0  0  0  0  0
   -1.3850    5.4150   17.3330 C   0  0  0  0  0  0  0  0  0  0  0  0
   -0.7160    6.6310   17.3010 C   0  0  0  0  0  0  0  0  0  0  0  0
   -1.4460    7.7360   16.9070 C   0  0  0  0  0  0  0  0  0  0  0  0
   -0.9860    9.1350   16.8000 C   0  0  0  0  0  0  0  0  0  0  0  0
    0.1350    9.5200   17.0490 O   0  0  0  0  0  0  0  0  0  0  0  0
   -1.3780   12.3320   16.1900 C   0  0  0  0  0  0  0  0  0  0  0  0
   -0.1930   12.3300   15.4360 C   0  0  0  0  0  0  0  0  0  0  0  0
    0.7280   13.3780   15.5310 C   0  0  0  0  0  0  0  0  0  0  0  0
    0.4780   14.4560   16.3740 C   0  0  0  0  0  0  0  0  0  0  0  0
   -0.6950   14.4910   17.1210 C   0  0  0  0  0  0  0  0  0  0  0  0
   -1.6130   13.4410   17.0260 C   0  0  0  0  0  0  0  0  0  0  0  0
   -4.9360    6.3110   16.1640 C   0  0  0  0  0  0  0  0  0  0  0  0
   -5.6220    5.0950   16.6320 N   0  0  0  0  0  0  0  0  0  0  0  0
   -5.0810    3.8710   16.0420 C   0  0  0  0  0  0  0  0  0  0  0  0
   -5.7310    2.5580   16.4890 C   0  0  0  0  0  0  0  0  0  0  0  0
   -7.2590    2.5640   16.4860 C   0  0  0  0  0  0  0  0  0  0  0  0
   -7.9170    3.6330   17.3660 C   0  0  0  0  0  0  0  0  0  0  0  0
   -7.0320    4.1340   18.5060 C   0  0  0  0  0  0  0  0  0  0  0  0
   -5.8720    5.0520   18.0700 C   0  0  0  0  0  0  0  0  0  0  0  0
  1  2  1  0
  2  3  2  0
  2  7  1  0
  3  4  1  0
  4 16  1  0
  4  5  2  0
  5 14  1  0
  6  5  1  0
  6  8  1  0
  7  6  2  0
  8  9  2  0
  8 13  1  0
  9 10  1  0
 10 11  2  0
 12 11  1  0
 13 12  2  0
 14 13  1  0
 14 15  2  0
 16 21  1  0
 17 18  1  0
 17 16  2  0
 18 19  2  0
 19 20  1  0
 21 20  2  0
 22  9  1  0
 22 23  1  0
 23 29  1  0
 24 25  1  0
 24 23  1  0
 26 25  1  0
 26 27  1  0
 27 28  1  0
 29 28  1  0
M  END
$$$$
