lig_059
     RDKit          3D

 33 35  0  0  1  0  0  0  0  0999 V2000
  -26.8660    6.5770    7.7830 C   0  0  0  0  0  0  0  0  0  0  0  0
  -28.0230    7.2660    8.3840 N   0  0  0  0  0  0  0  0  0  0  0  0
  -28.7910    8.1070    7.4410 C   0  0  1  0  0  0  0  0  0  0  0  0
  -30.2460    7.6600    7.3290 C   0  0  0  0  0  0  0  0  0  0  0  0
  -31.1100    8.1740    6.3490 C   0  0  0  0  0  0  0  0  0  0  0  0
  -32.4350    7.7370    6.2690 C   0  0  0  0  0  0  0  0  0  0  0  0
  -32.9190    6.7840    7.1690 C   0  0  0  0  0  0  0  0  0  0  0  0
  -34.5660    6.2910    7.0080 Cl  0  0  0  0  0  0  0  0  0  0  0  0
  -32.0720    6.2670    8.1530 C   0  0  0  0  0  0  0  0  0  0  0  0
  -32.6000    5.0880    9.3020 Cl  0  0  0  0  0  0  0  0  0  0  0  0
  -30.7470    6.7050    8.2310 C   0  0  0  0  0  0  0  0  0  0  0  0
  -28.6690    9.5880    7.8940 C   0  0  0  0  0  0  0  0  0  0  0  0
  -28.2240   10.5230    6.7900 C   0  0  0  0  0  0  0  0  0  0  0  0
  -27.0010   10.3260    6.1350 C   0  0  0  0  0  0  0  0  0  0  0  0
  -26.5850   11.2050    5.1340 C   0  0  0  0  0  0  0  0  0  0  0  0
  -27.3890   12.2870    4.7770 C   0  0  0  0  0  0  0  0  0  0  0  0
  -28.6060   12.4920    5.4220 C   0  0  0  0  0  0  0  0  0  0  0  0
  -29.0230   11.6150    6.4240 C   0  0  0  0  0  0  0  0  0  0  0  0
  -26.4370    5.2290    8.4140 C   0  0  1  0  0  0  0  0  0  0  0  0
  -25.6040    5.4660    9.5560 O   0  0  0  0  0  0  0  0  0  0  0  0
  -27.6400    4.3490    8.7930 C   0  0  0  0  0  0  0  0  0  0  0  0
  -25.7790    1.1890    9.8170 C   0  0  0  0  0  0  0  0  0  0  0  0
  -26.1880    2.3000    9.0830 C   0  0  0  0  0  0  0  0  0  0  0  0
  -27.2250    3.1120    9.5620 C   0  0  0  0  0  0  0  0  0  0  0  0
  -27.8480    2.7860   10.7780 C   0  0  0  0  0  0  0  0  0  0  0  0
  -27.4440    1.6670   11.5100 C   0  0  0  0  0  0  0  0  0  0  0  0
  -26.4090    0.8770   11.0240 C   0  0  0  0  0  0  0  0  0  0  0  0
  -24.6760    0.3730    9.3790 N   0  0  0  0  0  0  0  0  0  0  0  0
  -22.5920   -0.8160   10.5290 C   0  0  0  0  0  0  0  0  0  0  0  0
  -23.1710    0.7960   10.0540 S   0  0  0  0  0  0  0  0  0  0  0  0
  -23.4430    1.5480   11.2600 O   0  0  0  0  0  0  0  0  0  0  0  0
  -22.2810    1.2930    9.0260 O   0  0  0  0  0  0  0  0  0  0  0  0
  -25.9820   -0.2330   11.7060 O   0  0  0  0  0  0  0  0  0  0  0  0
  1  2  1  0
  3 12  1  1
  3  2  1  0
  4  3  1  0
  4 11  2  0
  5  4  1  0
  6  5  2  0
  6  7  1  0
  7  9  2  0
  8  7  1  0
  9 11  1  0
  9 10  1  0
 13 12  1  0
 14 13  2  0
 15 14  1  0
 16 15  2  0
 16 17  1  0
 17 18  2  0
 18 13  1  0
 19  1  1  0
 19 21  1  0
 19 20  1  1
 21 24  1  0
 22 27  2  0
 23 24  2  0
 23 22  1  0
 24 25  1  0
 25 26  2  0
 27 26  1  0
 27 33  1  0
 28 22  1  0
 28 30  1  0
 30 29  1  0
 30 31  2  0
 32 30  2  0
M  END
$$$$
