lig_060
     RDKit          3D

 24 26  0  0  1  0  0  0  0  0999 V2000
   19.6260   16.5050   10.6120 C   0  0  0  0  0  0  0  0  0  0  0  0
   21.1480   16.2910   10.7080 C   0  0  2  0  0  0  0  0  0  0  0  0
   21.7480   16.9550   11.8980 N   0  0  0  0  0  0  0  0  0  0  0  0
   22.8510   17.8810   11.6070 C   0  0  0  0  0  0  0  0  0  0  0  0
   23.1550   18.8560   12.7560 C   0  0  0  0  0  0  0  0  0  0  0  0
   22.8880   18.2090   14.1190 C   0  0  0  0  0  0  0  0  0  0  0  0
   21.4140   17.7620   14.1990 C   0  0  0  0  0  0  0  0  0  0  0  0
   20.7740   17.5200   12.8260 C   0  0  0  0  0  0  0  0  0  0  0  0
   23.2770   19.1620   15.2640 C   0  0  0  0  0  0  0  0  0  0  0  0
   24.4270   18.6610   16.1060 C   0  0  0  0  0  0  0  0  0  0  0  0
   24.3180   18.6050   17.5010 C   0  0  0  0  0  0  0  0  0  0  0  0
   25.3810   18.1390   18.2760 C   0  0  0  0  0  0  0  0  0  0  0  0
   26.5630   17.7250   17.6640 C   0  0  0  0  0  0  0  0  0  0  0  0
   26.6830   17.7790   16.2780 C   0  0  0  0  0  0  0  0  0  0  0  0
   25.6200   18.2450   15.5010 C   0  0  0  0  0  0  0  0  0  0  0  0
   21.8810   16.6650    9.3660 C   0  0  1  0  0  0  0  0  0  0  0  0
   22.7540   15.6050    8.7000 C   0  0  0  0  0  0  0  0  0  0  0  0
   23.1510   15.6350    7.3560 C   0  0  0  0  0  0  0  0  0  0  0  0
   23.9530   14.6200    6.8240 C   0  0  0  0  0  0  0  0  0  0  0  0
   24.3610   13.5630    7.6260 C   0  0  0  0  0  0  0  0  0  0  0  0
   23.9800   13.5000    8.9580 C   0  0  0  0  0  0  0  0  0  0  0  0
   23.1800   14.5160    9.4890 C   0  0  0  0  0  0  0  0  0  0  0  0
   25.1410   12.5990    7.0610 O   0  0  0  0  0  0  0  0  0  0  0  0
   20.9240   17.1230    8.3950 O   0  0  0  0  0  0  0  0  0  0  0  0
  2  1  1  6
  2  3  1  0
  3  8  1  0
  4  3  1  0
  4  5  1  0
  5  6  1  0
  6  7  1  0
  6  9  1  0
  8  7  1  0
  9 10  1  0
 10 11  2  0
 11 12  1  0
 13 12  2  0
 14 13  1  0
 15 10  1  0
 15 14  2  0
 16 24  1  6
 16  2  1  0
 17 16  1  0
 17 22  2  0
 18 17  1  0
 19 18  2  0
 19 20  1  0
 20 21  2  0
 21 22  1  0
 23 20  1  0
M  END
$$$$
