lig_413
     RDKit          3D

 22 24  0  0  0  0  0  0  0  0999 V2000
   -2.3600    7.1790   16.7680 C   0  0  0  0  0  0  0  0  0  0  0  0
   -1.5110    6.1920   17.2990 C   0  0  0  0  0  0  0  0  0  0  0  0
   -0.2190    6.5660   17.6930 C   0  0  0  0  0  0  0  0  0  0  0  0
    0.1800    7.8830   17.5620 C   0  0  0  0  0  0  0  0  0  0  0  0
   -0.6180    8.8310   17.0520 N   0  0  0  0  0  0  0  0  0  0  0  0
   -1.8670    8.4810   16.6530 C   0  0  0  0  0  0  0  0  0  0  0  0
   -1.9200    4.7890   17.4520 C   0  0  0  0  0  0  0  0  0  0  0  0
   -1.7150    4.1110   18.6640 C   0  0  0  0  0  0  0  0  0  0  0  0
   -2.1010    2.7770   18.8080 C   0  0  0  0  0  0  0  0  0  0  0  0
   -2.6940    2.1030   17.7430 C   0  0  0  0  0  0  0  0  0  0  0  0
   -2.9020    2.7610   16.5320 C   0  0  0  0  0  0  0  0  0  0  0  0
   -2.5150    4.0960   16.3860 C   0  0  0  0  0  0  0  0  0  0  0  0
    1.4660    8.2710   17.9110 N   0  0  0  0  0  0  0  0  0  0  0  0
   -4.7790    6.5940   16.0310 N   0  0  0  0  0  0  0  0  0  0  0  0
   -3.6970    6.8520   16.3640 C   0  0  0  0  0  0  0  0  0  0  0  0
   -2.8700    9.8180   16.0010 S   0  0  0  0  0  0  0  0  0  0  0  0
   -1.8560   10.3200   14.5680 C   0  0  0  0  0  0  0  0  0  0  0  0
   -1.0970   11.5790   14.8410 C   0  0  0  0  0  0  0  0  0  0  0  0
   -1.3790   12.7830   14.3800 N   0  0  0  0  0  0  0  0  0  0  0  0
   -0.4010   13.6090   14.8660 C   0  0  0  0  0  0  0  0  0  0  0  0
    0.5000   12.9030   15.6250 C   0  0  0  0  0  0  0  0  0  0  0  0
    0.0510   11.6130   15.5980 N   0  0  0  0  0  0  0  0  0  0  0  0
  1  2  2  0
  2  7  1  0
  2  3  1  0
  4  3  2  0
  4 13  1  0
  5  4  1  0
  6  1  1  0
  6  5  2  0
  7  8  2  0
  8  9  1  0
 10  9  2  0
 11 10  1  0
 12 11  2  0
 12  7  1  0
 14 15  3  0
 15  1  1  0
 16  6  1  0
 17 18  1  0
 17 16  1  0
 18 22  1  0
 19 18  2  0
 19 20  1  0
 20 21  2  0
 22 21  1  0
M  END
$$$$
