lig_492
     RDKit          3D

 27 30  0  0  0  0  0  0  0  0999 V2000
   -0.7390    9.5350   16.9950 C   0  0  0  0  0  0  0  0  0  0  0  0
   -1.9670    9.0390   16.3820 N   0  0  0  0  0  0  0  0  0  0  0  0
   -2.2780    7.7240   16.5930 C   0  0  0  0  0  0  0  0  0  0  0  0
   -1.4950    6.9030   17.2600 N   0  0  0  0  0  0  0  0  0  0  0  0
   -2.0430    5.6350   17.3390 C   0  0  0  0  0  0  0  0  0  0  0  0
   -3.2230    5.4630   16.6510 C   0  0  0  0  0  0  0  0  0  0  0  0
   -3.7080    6.9600   15.9820 S   0  0  0  0  0  0  0  0  0  0  0  0
   -1.3340    4.5240   18.1770 C   0  0  0  0  0  0  0  0  0  0  0  0
   -0.0170    4.5630   18.5930 C   0  0  0  0  0  0  0  0  0  0  0  0
    0.2150    3.3700   19.3200 C   0  0  0  0  0  0  0  0  0  0  0  0
   -0.9730    2.6800   19.3070 C   0  0  0  0  0  0  0  0  0  0  0  0
   -1.9170    3.3730   18.6220 O   0  0  0  0  0  0  0  0  0  0  0  0
   -4.0550    4.3020   16.4470 C   0  0  0  0  0  0  0  0  0  0  0  0
   -3.6480    3.2790   15.8980 O   0  0  0  0  0  0  0  0  0  0  0  0
   -5.4590    4.3040   16.9660 C   0  0  0  0  0  0  0  0  0  0  0  0
   -5.9480    5.3250   17.7940 C   0  0  0  0  0  0  0  0  0  0  0  0
   -7.2640    5.2780   18.2610 C   0  0  0  0  0  0  0  0  0  0  0  0
   -8.0930    4.2120   17.9150 C   0  0  0  0  0  0  0  0  0  0  0  0
   -7.6090    3.1870   17.1050 C   0  0  0  0  0  0  0  0  0  0  0  0
   -6.2960    3.2290   16.6340 C   0  0  0  0  0  0  0  0  0  0  0  0
   -2.9690   10.0310   15.9810 C   0  0  0  0  0  0  0  0  0  0  0  0
   -2.4120   11.1670   15.1070 C   0  0  0  0  0  0  0  0  0  0  0  0
   -2.5010   12.5240   15.7510 C   0  0  0  0  0  0  0  0  0  0  0  0
   -2.3100   12.8570   17.0780 C   0  0  0  0  0  0  0  0  0  0  0  0
   -2.4690   14.2540   17.3160 C   0  0  0  0  0  0  0  0  0  0  0  0
   -2.7590   14.9420   16.1600 C   0  0  0  0  0  0  0  0  0  0  0  0
   -2.8340   13.9100   14.7990 S   0  0  0  0  0  0  0  0  0  0  0  0
  2  3  1  0
  2  1  1  0
  3  4  2  0
  4  5  1  0
  5  8  1  0
  6  5  2  0
  7  3  1  0
  7  6  1  0
  8  9  2  0
  8 12  1  0
  9 10  1  0
 11 10  2  0
 12 11  1  0
 13  6  1  0
 13 15  1  0
 14 13  2  0
 15 16  2  0
 16 17  1  0
 18 17  2  0
 19 18  1  0
 20 15  1  0
 20 19  2  0
 21  2  1  0
 22 23  1  0
 22 21  1  0
 23 24  2  0
 24 25  1  0
 26 25  2  0
 27 23  1  0
 27 26  1  0
M  END
$$$$
