lig_300
     RDKit          3D

 22 23  0  0  1  0  0  0  0  0999 V2000
    0.2060  -19.5250   12.6260 C   0  0  2  0  0  0  0  0  0  0  0  0
   -1.0250  -19.6360   13.5430 C   0  0  0  0  0  0  0  0  0  0  0  0
   -1.4770  -21.0890   13.6840 C   0  0  0  0  0  0  0  0  0  0  0  0
   -0.3840  -22.0190   13.9320 N   0  0  0  0  0  0  0  0  0  0  0  0
    0.9370  -21.6960   13.7210 C   0  0  0  0  0  0  0  0  0  0  0  0
    1.6950  -22.7920   14.0600 C   0  0  0  0  0  0  0  0  0  0  0  0
    0.8020  -23.8130   14.4560 C   0  0  0  0  0  0  0  0  0  0  0  0
   -0.5010  -23.3380   14.3540 C   0  0  0  0  0  0  0  0  0  0  0  0
    1.3720  -20.3470   13.2330 C   0  0  0  0  0  0  0  0  0  0  0  0
   -1.7840  -24.0240   14.6040 C   0  0  0  0  0  0  0  0  0  0  0  0
   -2.4150  -24.5000   13.6530 O   0  0  0  0  0  0  0  0  0  0  0  0
   -2.3150  -24.1620   16.0510 C   0  0  0  0  0  0  0  0  0  0  0  0
   -3.9900  -23.5490   16.1450 Cl  0  0  0  0  0  0  0  0  0  0  0  0
   -1.3120  -23.1790   17.1790 Cl  0  0  0  0  0  0  0  0  0  0  0  0
   -2.2180  -25.8590   16.6030 Cl  0  0  0  0  0  0  0  0  0  0  0  0
    0.5270  -18.1340   12.2210 N   0  0  0  0  0  0  0  0  0  0  0  0
    0.6680  -17.2260   13.3700 C   0  0  0  0  0  0  0  0  0  0  0  0
    3.1290  -17.1860   12.8160 C   0  0  0  0  0  0  0  0  0  0  0  0
    1.9490  -16.3830   13.3450 C   0  0  0  0  0  0  0  0  0  0  0  0
   -0.1790  -17.5740   11.0640 C   0  0  0  0  0  0  0  0  0  0  0  0
   -0.6260  -18.5540    9.9760 C   0  0  0  0  0  0  0  0  0  0  0  0
   -0.6230  -17.8920    8.6040 C   0  0  0  0  0  0  0  0  0  0  0  0
  1 16  1  1
  1  9  1  0
  1  2  1  0
  2  3  1  0
  3  4  1  0
  4  8  1  0
  5  4  1  0
  5  6  2  0
  6  7  1  0
  8  7  2  0
  8 10  1  0
  9  5  1  0
 10 12  1  0
 11 10  2  0
 12 13  1  0
 12 15  1  0
 12 14  1  0
 16 17  1  0
 18 19  1  0
 19 17  1  0
 20 16  1  0
 21 20  1  0
 22 21  1  0
M  END
$$$$
