lig_016
     RDKit          3D

 37 40  0  0  1  0  0  0  0  0999 V2000
    1.9120  -16.1230   13.0590 C   0  0  1  0  0  0  0  0  0  0  0  0
    0.9290  -16.3430   14.2130 C   0  0  0  0  0  0  0  0  0  0  0  0
   -0.1050  -17.4420   13.9250 C   0  0  0  0  0  0  0  0  0  0  0  0
    0.3940  -18.5170   12.9440 C   0  0  1  0  0  0  0  0  0  0  0  0
    0.1450  -18.0370   11.6750 F   0  0  0  0  0  0  0  0  0  0  0  0
    1.9090  -18.7050   13.0450 C   0  0  0  0  0  0  0  0  0  0  0  0
    2.6870  -17.4130   12.7470 C   0  0  0  0  0  0  0  0  0  0  0  0
    1.8690  -14.9740   10.8570 C   0  0  0  0  0  0  0  0  0  0  0  0
    3.0850  -14.8070   10.8410 O   0  0  0  0  0  0  0  0  0  0  0  0
    1.2140  -15.6470   11.8730 N   0  0  0  0  0  0  0  0  0  0  0  0
    0.9270  -14.4260    9.7760 C   0  0  0  0  0  0  0  0  0  0  0  0
    1.0680  -13.0370    9.5120 O   0  0  0  0  0  0  0  0  0  0  0  0
   -3.5080   -9.9670   10.2620 C   0  0  0  0  0  0  0  0  0  0  0  0
   -2.2780  -10.7920   10.0590 C   0  0  0  0  0  0  0  0  0  0  0  0
   -2.0090  -11.8800   10.8870 C   0  0  0  0  0  0  0  0  0  0  0  0
   -0.9120  -12.6630   10.7520 N   0  0  0  0  0  0  0  0  0  0  0  0
   -0.0910  -12.3250    9.7330 C   0  0  0  0  0  0  0  0  0  0  0  0
   -0.3470  -11.2400    8.9070 C   0  0  0  0  0  0  0  0  0  0  0  0
   -1.4400  -10.4490    9.0510 N   0  0  0  0  0  0  0  0  0  0  0  0
   -0.3960  -19.8320   13.0490 C   0  0  0  0  0  0  0  0  0  0  0  0
   -0.2650  -20.7700   11.8400 C   0  0  0  0  0  0  0  0  0  0  0  0
    0.0040  -22.1710   12.2200 N   0  0  0  0  0  0  0  0  0  0  0  0
    0.5720  -22.2810   13.5810 C   0  0  0  0  0  0  0  0  0  0  0  0
    0.6080  -23.6890   14.2020 C   0  0  0  0  0  0  0  0  0  0  0  0
   -0.7160  -24.1120   14.7570 C   0  0  0  0  0  0  0  0  0  0  0  0
   -0.7430  -24.8720   15.9160 N   0  0  0  0  0  0  0  0  0  0  0  0
   -1.9860  -25.1340   16.2460 C   0  0  0  0  0  0  0  0  0  0  0  0
   -3.1860  -24.4960   15.2100 S   0  0  0  0  0  0  0  0  0  0  0  0
   -1.9600  -23.8190   14.2230 C   0  0  0  0  0  0  0  0  0  0  0  0
   -2.2990  -23.0310   12.9960 C   0  0  0  0  0  0  0  0  0  0  0  0
   -1.1630  -23.0370   11.9560 C   0  0  0  0  0  0  0  0  0  0  0  0
   -2.3210  -25.8490   17.3190 O   0  0  0  0  0  0  0  0  0  0  0  0
   -3.7320  -25.9820   17.5250 C   0  0  0  0  0  0  0  0  0  0  0  0
   -4.1700  -25.1660   18.7240 C   0  0  0  0  0  0  0  0  0  0  0  0
   -5.0740  -24.2200   18.3830 F   0  0  0  0  0  0  0  0  0  0  0  0
   -3.1120  -24.5320   19.2810 F   0  0  0  0  0  0  0  0  0  0  0  0
   -4.7230  -25.9430   19.6840 F   0  0  0  0  0  0  0  0  0  0  0  0
  1 10  1  6
  1  2  1  0
  3  2  1  0
  4  5  1  6
  4  6  1  0
  4 20  1  0
  4  3  1  0
  7  6  1  0
  7  1  1  0
  8 10  1  0
  9  8  2  0
 11  8  1  0
 12 17  1  0
 12 11  1  0
 14 13  1  0
 14 15  1  0
 16 15  2  0
 17 16  1  0
 18 19  1  0
 18 17  2  0
 19 14  2  0
 21 22  1  0
 21 20  1  0
 22 23  1  0
 23 24  1  0
 24 25  1  0
 25 26  1  0
 26 27  2  0
 27 32  1  0
 28 27  1  0
 29 25  2  0
 29 28  1  0
 30 29  1  0
 31 22  1  0
 31 30  1  0
 32 33  1  0
 33 34  1  0
 34 36  1  0
 34 37  1  0
 35 34  1  0
M  END
$$$$
