lig_147
     RDKit          3D

 42 47  0  0  1  0  0  0  0  0999 V2000
    0.2280   15.5850   16.6120 N   0  0  0  0  0  0  0  0  0  0  0  0
    0.9600   15.8250   15.4910 N   0  0  0  0  0  0  0  0  0  0  0  0
    2.0640   16.4290   15.9510 C   0  0  0  0  0  0  0  0  0  0  0  0
    2.0110   16.6170   17.3330 C   0  0  0  0  0  0  0  0  0  0  0  0
    0.8070   16.0940   17.7450 C   0  0  0  0  0  0  0  0  0  0  0  0
    0.2950   16.0660   19.0070 N   0  0  0  0  0  0  0  0  0  0  0  0
    1.0830   16.5930   19.9180 C   0  0  0  0  0  0  0  0  0  0  0  0
    0.6730   16.6020   21.2170 N   0  0  0  0  0  0  0  0  0  0  0  0
    2.3270   17.1510   19.5970 N   0  0  0  0  0  0  0  0  0  0  0  0
    3.2770   17.7930   20.3690 C   0  0  0  0  0  0  0  0  0  0  0  0
    3.2080   18.0620   21.5600 O   0  0  0  0  0  0  0  0  0  0  0  0
    4.3180   18.1160   19.4810 N   0  0  0  0  0  0  0  0  0  0  0  0
    3.9950   17.7430   18.1850 N   0  0  0  0  0  0  0  0  0  0  0  0
    2.8320   17.1870   18.3350 C   0  0  0  0  0  0  0  0  0  0  0  0
   -1.0650   14.9430   16.5110 C   0  0  0  0  0  0  0  0  0  0  0  0
   -1.7210   15.0660   15.1250 C   0  0  0  0  0  0  0  0  0  0  0  0
   -2.6870   10.9820   15.3820 N   0  0  0  0  0  0  0  0  0  0  0  0
   -1.6530   11.3260   14.3930 C   0  0  0  0  0  0  0  0  0  0  0  0
   -1.1310   12.7630   14.6240 C   0  0  0  0  0  0  0  0  0  0  0  0
   -2.1720   13.8050   14.5140 N   0  0  0  0  0  0  0  0  0  0  0  0
   -3.4740   13.3220   15.0230 C   0  0  0  0  0  0  0  0  0  0  0  0
   -3.4190   12.1080   15.9840 C   0  0  0  0  0  0  0  0  0  0  0  0
   -3.1830    6.9850   16.7380 C   0  0  0  0  0  0  0  0  0  0  0  0
   -1.9320    7.5930   16.7400 C   0  0  0  0  0  0  0  0  0  0  0  0
   -1.7840    8.9150   16.2900 C   0  0  0  0  0  0  0  0  0  0  0  0
   -2.8700    9.6800   15.8270 C   0  0  0  0  0  0  0  0  0  0  0  0
   -4.1180    9.0260   15.8360 C   0  0  0  0  0  0  0  0  0  0  0  0
   -5.2300    9.6680   15.4390 F   0  0  0  0  0  0  0  0  0  0  0  0
   -4.2770    7.7120   16.2820 C   0  0  0  0  0  0  0  0  0  0  0  0
   -3.4660    5.7130   17.1460 O   0  0  0  0  0  0  0  0  0  0  0  0
   -3.8600    4.7760   16.1370 C   0  0  0  0  0  0  0  0  0  0  0  0
   -5.2370    4.2110   16.4930 C   0  0  0  0  0  0  0  0  0  0  0  0
   -7.0780    4.7900   17.8970 C   0  0  0  0  0  0  0  0  0  0  0  0
   -5.6750    4.5820   17.8060 O   0  0  0  0  0  0  0  0  0  0  0  0
    5.4650   18.9330   19.7990 C   0  0  0  0  0  0  0  0  0  0  0  0
    6.6840   18.0950   20.0980 C   0  0  0  0  0  0  0  0  0  0  0  0
    7.4360   18.3170   21.2620 C   0  0  0  0  0  0  0  0  0  0  0  0
    8.5770   17.5560   21.5260 C   0  0  0  0  0  0  0  0  0  0  0  0
    8.9830   16.5720   20.6250 C   0  0  0  0  0  0  0  0  0  0  0  0
    8.2490   16.3550   19.4610 C   0  0  0  0  0  0  0  0  0  0  0  0
    8.7560   15.1480   18.3440 Cl  0  0  0  0  0  0  0  0  0  0  0  0
    7.1080   17.1110   19.1920 C   0  0  0  0  0  0  0  0  0  0  0  0
  1  5  1  0
  2  3  2  0
  2  1  1  0
  3  4  1  0
  4  5  1  0
  4 14  2  0
  5  6  2  0
  6  7  1  0
  7  8  1  0
  9  7  1  0
  9 10  1  0
 10 11  2  0
 12 35  1  0
 12 10  1  0
 13 14  1  0
 13 12  1  0
 14  9  1  0
 15  1  1  0
 16 15  1  0
 17 26  1  0
 17 22  1  0
 18 19  1  0
 18 17  1  0
 20 19  1  0
 20 21  1  0
 20 16  1  0
 21 22  1  0
 23 24  1  0
 23 30  1  0
 25 24  2  0
 26 27  2  0
 26 25  1  0
 27 29  1  0
 28 27  1  0
 29 23  2  0
 31 32  1  0
 31 30  1  0
 32 34  1  0
 34 33  1  0
 35 36  1  0
 36 37  2  0
 37 38  1  0
 39 38  2  0
 40 39  1  0
 41 40  1  0
 42 40  2  0
 42 36  1  0
M  END
$$$$
