lig_237
     RDKit          3D

 23 25  0  0  0  0  0  0  0  0999 V2000
    2.1420  -16.9810   13.1750 C   0  0  0  0  0  0  0  0  0  0  0  0
    1.9440  -18.3530   13.6800 N   0  0  0  0  0  0  0  0  0  0  0  0
    1.5920  -19.2920   12.6020 C   0  0  0  0  0  0  0  0  0  0  0  0
    1.0910  -20.6260   13.0860 C   0  0  0  0  0  0  0  0  0  0  0  0
    0.7280  -20.8670   14.3600 C   0  0  0  0  0  0  0  0  0  0  0  0
    0.8090  -19.7580   15.3800 C   0  0  0  0  0  0  0  0  0  0  0  0
    0.9080  -18.3700   14.7250 C   0  0  0  0  0  0  0  0  0  0  0  0
    0.2560  -22.1960   14.8000 C   0  0  0  0  0  0  0  0  0  0  0  0
    0.5640  -23.3520   14.0670 C   0  0  0  0  0  0  0  0  0  0  0  0
    0.1010  -24.6050   14.4760 C   0  0  0  0  0  0  0  0  0  0  0  0
   -0.6800  -24.7200   15.6230 C   0  0  0  0  0  0  0  0  0  0  0  0
   -0.9990  -23.5820   16.3590 C   0  0  0  0  0  0  0  0  0  0  0  0
   -0.5370  -22.3280   15.9500 C   0  0  0  0  0  0  0  0  0  0  0  0
    0.8300  -16.2080   12.9520 C   0  0  0  0  0  0  0  0  0  0  0  0
    0.9630  -14.7150   10.7390 C   0  0  0  0  0  0  0  0  0  0  0  0
    0.9030  -15.3860   11.7340 C   0  0  0  0  0  0  0  0  0  0  0  0
    1.1570  -12.3620    7.2170 C   0  0  0  0  0  0  0  0  0  0  0  0
    1.6970  -13.6490    7.2420 C   0  0  0  0  0  0  0  0  0  0  0  0
    1.6200  -14.4340    8.3980 C   0  0  0  0  0  0  0  0  0  0  0  0
    1.0390  -13.9170    9.5550 C   0  0  0  0  0  0  0  0  0  0  0  0
    0.5500  -12.6110    9.5570 C   0  0  0  0  0  0  0  0  0  0  0  0
    0.6300  -11.8320    8.3980 C   0  0  0  0  0  0  0  0  0  0  0  0
    1.3420  -11.5410    6.0980 N   0  0  0  0  0  0  0  0  0  0  0  0
  1  2  1  0
  2  7  1  0
  3  4  1  0
  3  2  1  0
  4  5  2  0
  5  8  1  0
  5  6  1  0
  7  6  1  0
  8 13  1  0
  9 10  1  0
  9  8  2  0
 10 11  2  0
 11 12  1  0
 13 12  2  0
 14  1  1  0
 15 16  3  0
 16 14  1  0
 17 18  1  0
 17 22  2  0
 18 19  2  0
 19 20  1  0
 20 21  2  0
 20 15  1  0
 22 21  1  0
 23 17  1  0
M  END
$$$$
