lig_067
     RDKit          3D

 22 25  0  0  0  0  0  0  0  0999 V2000
   21.2920   18.3140    8.4420 C   0  0  0  0  0  0  0  0  0  0  0  0
   22.3930   16.0350    8.6960 C   0  0  0  0  0  0  0  0  0  0  0  0
   22.0840   17.1140    7.9540 C   0  0  0  0  0  0  0  0  0  0  0  0
   22.5720   17.2160    6.5230 C   0  0  0  0  0  0  0  0  0  0  0  0
   22.8240   15.8590    5.8530 C   0  0  0  0  0  0  0  0  0  0  0  0
   23.4660   14.8610    6.7790 C   0  0  0  0  0  0  0  0  0  0  0  0
   24.2370   13.8070    6.2720 C   0  0  0  0  0  0  0  0  0  0  0  0
   24.7750   12.8530    7.1350 C   0  0  0  0  0  0  0  0  0  0  0  0
   24.5340   12.9370    8.5050 C   0  0  0  0  0  0  0  0  0  0  0  0
   23.7550   13.9770    9.0160 C   0  0  0  0  0  0  0  0  0  0  0  0
   23.2190   14.9450    8.1600 C   0  0  0  0  0  0  0  0  0  0  0  0
   21.3330   18.6920    9.9420 C   0  0  0  0  0  0  0  0  0  0  0  0
   20.1250   18.3580   10.7210 N   0  0  0  0  0  0  0  0  0  0  0  0
   20.2610   18.7340   12.1390 C   0  0  0  0  0  0  0  0  0  0  0  0
   20.3510   20.2470   12.3890 C   0  0  0  0  0  0  0  0  0  0  0  0
   19.3790   21.0390   11.5500 C   0  0  0  0  0  0  0  0  0  0  0  0
   19.1760   22.4010   11.8130 C   0  0  0  0  0  0  0  0  0  0  0  0
   18.3080   23.1500   11.0180 C   0  0  0  0  0  0  0  0  0  0  0  0
   17.6420   22.5480    9.9540 C   0  0  0  0  0  0  0  0  0  0  0  0
   17.8420   21.1940    9.6800 C   0  0  0  0  0  0  0  0  0  0  0  0
   18.7210   20.4320   10.4650 C   0  0  0  0  0  0  0  0  0  0  0  0
   18.8880   18.9530   10.1850 C   0  0  0  0  0  0  0  0  0  0  0  0
  1 12  1  0
  3  1  1  0
  3  2  2  0
  4  3  1  0
  5  4  1  0
  5  6  1  0
  6 11  1  0
  7  6  2  0
  7  8  1  0
  8  9  2  0
  9 10  1  0
 11  2  1  0
 11 10  2  0
 12 13  1  0
 13 14  1  0
 14 15  1  0
 16 17  2  0
 16 15  1  0
 18 17  1  0
 19 18  2  0
 20 19  1  0
 20 21  2  0
 21 16  1  0
 22 21  1  0
 22 13  1  0
M  END
$$$$
