lig_020
     RDKit          3D

 32 36  0  0  0  0  0  0  0  0999 V2000
   -1.6500    5.9350   17.3610 C   0  0  0  0  0  0  0  0  0  0  0  0
   -0.5500    5.5590   18.0830 C   0  0  0  0  0  0  0  0  0  0  0  0
    0.5310    6.3860   18.3820 N   0  0  0  0  0  0  0  0  0  0  0  0
    0.4840    7.6300   18.0000 C   0  0  0  0  0  0  0  0  0  0  0  0
    1.5010    8.5070   18.2730 N   0  0  0  0  0  0  0  0  0  0  0  0
   -0.6240    8.0810   17.2750 N   0  0  0  0  0  0  0  0  0  0  0  0
   -0.7430    9.3360   16.7820 N   0  0  0  0  0  0  0  0  0  0  0  0
   -1.9350    9.2520   16.1720 C   0  0  0  0  0  0  0  0  0  0  0  0
   -2.5440    8.0220   16.2430 N   0  0  0  0  0  0  0  0  0  0  0  0
   -1.6870    7.2970   16.9350 C   0  0  0  0  0  0  0  0  0  0  0  0
   -6.9980    5.5450   18.3380 C   0  0  0  0  0  0  0  0  0  0  0  0
   -6.4010    4.4760   17.5060 C   0  0  0  0  0  0  0  0  0  0  0  0
   -6.9750    3.3760   16.9030 C   0  0  0  0  0  0  0  0  0  0  0  0
   -6.0480    2.6410   16.2130 N   0  0  0  0  0  0  0  0  0  0  0  0
   -4.9080    3.2750   16.3830 C   0  0  0  0  0  0  0  0  0  0  0  0
   -3.6000    2.9890   15.9100 C   0  0  0  0  0  0  0  0  0  0  0  0
   -2.5810    3.8150   16.2190 C   0  0  0  0  0  0  0  0  0  0  0  0
   -2.7640    5.0280   17.0320 C   0  0  0  0  0  0  0  0  0  0  0  0
   -4.0120    5.2670   17.4970 C   0  0  0  0  0  0  0  0  0  0  0  0
   -5.0630    4.4100   17.1690 N   0  0  0  0  0  0  0  0  0  0  0  0
   -0.4070    4.1800   18.6180 C   0  0  0  0  0  0  0  0  0  0  0  0
    0.8620    3.5810   18.6570 C   0  0  0  0  0  0  0  0  0  0  0  0
    1.0170    2.2830   19.1490 C   0  0  0  0  0  0  0  0  0  0  0  0
   -0.0940    1.5900   19.6120 C   0  0  0  0  0  0  0  0  0  0  0  0
    0.0550    0.3460   20.0840 F   0  0  0  0  0  0  0  0  0  0  0  0
   -1.3580    2.1710   19.5980 C   0  0  0  0  0  0  0  0  0  0  0  0
   -1.5140    3.4680   19.1080 C   0  0  0  0  0  0  0  0  0  0  0  0
   -2.5610   10.4020   15.4640 C   0  0  0  0  0  0  0  0  0  0  0  0
   -1.5590   11.0980   14.5300 C   0  0  0  0  0  0  0  0  0  0  0  0
   -1.1040   12.4490   14.9080 N   0  0  0  0  0  0  0  0  0  0  0  0
    0.2890   12.4750   15.3450 C   0  0  0  0  0  0  0  0  0  0  0  0
   -1.9770   13.0800   15.8930 C   0  0  0  0  0  0  0  0  0  0  0  0
  1  2  2  0
  2  3  1  0
  2 21  1  0
  4  5  1  0
  4  3  2  0
  6  4  1  0
  7  6  1  0
  8  9  1  0
  8  7  2  0
  9 10  2  0
 10  6  1  0
 10  1  1  0
 12 11  1  0
 13 12  2  0
 14 15  2  0
 14 13  1  0
 15 20  1  0
 16 17  2  0
 16 15  1  0
 17 18  1  0
 18  1  1  0
 18 19  2  0
 20 19  1  0
 20 12  1  0
 21 22  1  0
 21 27  2  0
 22 23  2  0
 23 24  1  0
 24 25  1  0
 26 24  2  0
 27 26  1  0
 28  8  1  0
 29 30  1  0
 29 28  1  0
 30 31  1  0
 30 32  1  0
M  END
$$$$
