lig_124
     RDKit          3D

 40 44  0  0  0  0  0  0  0  0999 V2000
    1.5830  -18.9570   14.4830 C   0  0  0  0  0  0  0  0  0  0  0  0
    0.3260  -15.8250   12.0490 N   0  0  0  0  0  0  0  0  0  0  0  0
   -0.2110  -17.1370   11.6510 C   0  0  0  0  0  0  0  0  0  0  0  0
   -0.0250  -18.1500   12.8020 C   0  0  0  0  0  0  0  0  0  0  0  0
    1.3870  -18.3850   13.1500 N   0  0  0  0  0  0  0  0  0  0  0  0
    2.2520  -17.2380   12.8300 C   0  0  0  0  0  0  0  0  0  0  0  0
    1.5730  -15.8470   12.8360 C   0  0  0  0  0  0  0  0  0  0  0  0
    0.1330  -13.9100    9.0220 C   0  0  0  0  0  0  0  0  0  0  0  0
    0.3930  -14.9140    9.8800 N   0  0  0  0  0  0  0  0  0  0  0  0
    0.0810  -14.7690   11.1800 C   0  0  0  0  0  0  0  0  0  0  0  0
   -0.5180  -13.6060   11.6190 C   0  0  0  0  0  0  0  0  0  0  0  0
   -0.7440  -12.5990   10.6960 C   0  0  0  0  0  0  0  0  0  0  0  0
   -0.4140  -12.7420    9.3900 N   0  0  0  0  0  0  0  0  0  0  0  0
    1.2380  -12.8100    7.0390 C   0  0  0  0  0  0  0  0  0  0  0  0
    0.5600  -14.0890    7.5670 C   0  0  0  0  0  0  0  0  0  0  0  0
    1.5590  -15.2530    7.4160 C   0  0  0  0  0  0  0  0  0  0  0  0
   -0.6910  -14.3870    6.7260 C   0  0  0  0  0  0  0  0  0  0  0  0
   -1.4160  -11.3220   11.1630 C   0  0  0  0  0  0  0  0  0  0  0  0
   -2.7370  -11.2700   10.8230 F   0  0  0  0  0  0  0  0  0  0  0  0
   -0.8580  -10.1800   10.6690 F   0  0  0  0  0  0  0  0  0  0  0  0
   -1.3880  -11.1830   12.5220 F   0  0  0  0  0  0  0  0  0  0  0  0
    1.0610  -20.3860   14.6910 C   0  0  0  0  0  0  0  0  0  0  0  0
    1.5990  -21.3270   13.6110 C   0  0  0  0  0  0  0  0  0  0  0  0
    1.0990  -22.7560   13.8230 C   0  0  0  0  0  0  0  0  0  0  0  0
    0.3600  -22.8930   15.0640 N   0  0  0  0  0  0  0  0  0  0  0  0
   -0.8350  -23.5700   15.0870 C   0  0  0  0  0  0  0  0  0  0  0  0
   -1.3200  -24.0770   14.0780 O   0  0  0  0  0  0  0  0  0  0  0  0
   -1.4260  -23.6530   16.3350 N   0  0  0  0  0  0  0  0  0  0  0  0
   -2.6680  -24.4410   16.4560 C   0  0  0  0  0  0  0  0  0  0  0  0
   -3.9180  -23.5400   16.4190 C   0  0  0  0  0  0  0  0  0  0  0  0
   -3.7170  -22.3860   17.3450 C   0  0  0  0  0  0  0  0  0  0  0  0
   -2.4520  -22.0260   17.7730 C   0  0  0  0  0  0  0  0  0  0  0  0
   -2.5780  -20.9370   18.5900 N   0  0  0  0  0  0  0  0  0  0  0  0
   -3.9070  -20.5870   18.7040 C   0  0  0  0  0  0  0  0  0  0  0  0
   -4.5060  -19.5500   19.4300 C   0  0  0  0  0  0  0  0  0  0  0  0
   -5.8960  -19.4260   19.3560 C   0  0  0  0  0  0  0  0  0  0  0  0
   -6.6570  -20.3030   18.5870 C   0  0  0  0  0  0  0  0  0  0  0  0
   -6.0450  -21.3360   17.8670 C   0  0  0  0  0  0  0  0  0  0  0  0
   -4.6460  -21.4830   17.9260 C   0  0  0  0  0  0  0  0  0  0  0  0
   -1.1660  -22.7010   17.4280 C   0  0  0  0  0  0  0  0  0  0  0  0
  1 22  1  0
  2  7  1  0
  3  2  1  0
  3  4  1  0
  4  5  1  0
  5  1  1  0
  6  7  1  0
  6  5  1  0
  8 13  1  0
  8  9  2  0
  9 10  1  0
 10 11  2  0
 10  2  1  0
 12 18  1  0
 12 11  1  0
 13 12  2  0
 14 15  1  0
 15  8  1  0
 16 15  1  0
 17 15  1  0
 18 21  1  0
 19 18  1  0
 20 18  1  0
 23 24  1  0
 23 22  1  0
 24 25  1  0
 25 26  1  0
 26 28  1  0
 27 26  2  0
 28 29  1  0
 28 40  1  0
 30 29  1  0
 30 31  1  0
 31 32  2  0
 31 39  1  0
 32 33  1  0
 33 34  1  0
 34 35  2  0
 36 35  1  0
 37 36  2  0
 38 39  2  0
 38 37  1  0
 39 34  1  0
 40 32  1  0
M  END
$$$$
