lig_079
     RDKit          3D

 29 31  0  0  1  0  0  0  0  0999 V2000
  -33.7020    7.1930    7.6870 N   0  0  0  0  0  0  0  0  0  0  0  0
  -34.2610    5.9460    7.4060 C   0  0  0  0  0  0  0  0  0  0  0  0
  -33.9820    5.2130    6.2500 C   0  0  0  0  0  0  0  0  0  0  0  0
  -34.5290    3.9430    6.0510 C   0  0  0  0  0  0  0  0  0  0  0  0
  -35.3450    3.3680    7.0250 C   0  0  0  0  0  0  0  0  0  0  0  0
  -35.6050    4.0480    8.2160 C   0  0  0  0  0  0  0  0  0  0  0  0
  -35.0510    5.3290    8.3890 C   0  0  0  0  0  0  0  0  0  0  0  0
  -36.4420    3.4660    9.2560 C   0  0  0  0  0  0  0  0  0  0  0  0
  -35.9460    2.3180    9.8260 O   0  0  0  0  0  0  0  0  0  0  0  0
  -36.8630    1.9800   10.7670 C   0  0  0  0  0  0  0  0  0  0  0  0
  -37.8940    2.7830   10.8510 N   0  0  0  0  0  0  0  0  0  0  0  0
  -37.6490    3.7480    9.8790 C   0  0  0  0  0  0  0  0  0  0  0  0
  -38.5670    4.8370    9.5910 C   0  0  0  0  0  0  0  0  0  0  0  0
  -38.2910    6.0280    9.5360 O   0  0  0  0  0  0  0  0  0  0  0  0
  -39.8440    4.4450    9.3660 O   0  0  0  0  0  0  0  0  0  0  0  0
  -32.2700    7.3610    7.9340 C   0  0  0  0  0  0  0  0  0  0  0  0
  -31.8300    8.1210    5.5490 C   0  0  0  0  0  0  0  0  0  0  0  0
  -31.6110    8.4430    7.0330 C   0  0  1  0  0  0  0  0  0  0  0  0
  -32.1520    9.8030    7.2510 N   0  0  0  0  0  0  0  0  0  0  0  0
  -31.1570   10.7190    7.8430 C   0  0  0  0  0  0  0  0  0  0  0  0
  -30.7430   11.7870    6.8020 C   0  0  1  0  0  0  0  0  0  0  0  0
  -29.3230   11.5840    6.3240 C   0  0  0  0  0  0  0  0  0  0  0  0
  -28.7100   12.5500    5.5100 C   0  0  0  0  0  0  0  0  0  0  0  0
  -27.3890   12.3900    5.0850 C   0  0  0  0  0  0  0  0  0  0  0  0
  -26.6620   11.2660    5.4720 C   0  0  0  0  0  0  0  0  0  0  0  0
  -27.2600   10.3030    6.2810 C   0  0  0  0  0  0  0  0  0  0  0  0
  -26.3600    8.9170    6.7630 Cl  0  0  0  0  0  0  0  0  0  0  0  0
  -28.5780   10.4570    6.7090 C   0  0  0  0  0  0  0  0  0  0  0  0
  -31.6510   11.7340    5.6970 O   0  0  0  0  0  0  0  0  0  0  0  0
  1 16  1  0
  2  1  1  0
  2  7  2  0
  3  2  1  0
  4  3  2  0
  4  5  1  0
  5  6  2  0
  6  7  1  0
  6  8  1  0
  8  9  1  0
  8 12  2  0
  9 10  1  0
 10 11  2  0
 12 11  1  0
 13 12  1  0
 14 13  2  0
 15 13  1  0
 18 17  1  6
 18 19  1  0
 18 16  1  0
 19 20  1  0
 21 20  1  0
 22 28  1  0
 22 21  1  0
 23 22  2  0
 24 25  2  0
 24 23  1  0
 25 26  1  0
 26 28  2  0
 26 27  1  0
 21 29  1  6
M  END
$$$$
