lig_074
     RDKit          3D

 28 32  0  0  1  0  0  0  0  0999 V2000
   21.6540   17.3340   10.6140 C   0  0  0  0  0  0  0  0  0  0  0  0
   22.6580   17.6010   11.4860 N   0  0  0  0  0  0  0  0  0  0  0  0
   22.5320   18.6650   12.3000 C   0  0  0  0  0  0  0  0  0  0  0  0
   23.8450   18.9430   13.3600 Cl  0  0  0  0  0  0  0  0  0  0  0  0
   21.5180   19.5520   12.4000 N   0  0  0  0  0  0  0  0  0  0  0  0
   20.5390   19.2300   11.5380 C   0  0  0  0  0  0  0  0  0  0  0  0
   20.5310   18.1850   10.6300 C   0  0  0  0  0  0  0  0  0  0  0  0
   19.3680   18.1980    9.8920 N   0  0  0  0  0  0  0  0  0  0  0  0
   18.6910   19.2370   10.3380 C   0  0  0  0  0  0  0  0  0  0  0  0
   19.3410   19.8780   11.3570 N   0  0  0  0  0  0  0  0  0  0  0  0
   18.9360   21.0560   12.1230 C   0  0  1  0  0  0  0  0  0  0  0  0
   19.6460   22.3300   11.5910 C   0  0  1  0  0  0  0  0  0  0  0  0
   18.6950   23.4990   11.9430 C   0  0  1  0  0  0  0  0  0  0  0  0
   17.3100   22.8920   11.9690 C   0  0  2  0  0  0  0  0  0  0  0  0
   16.8230   22.1730   13.2140 C   0  0  0  0  0  0  0  0  0  0  0  0
   17.4580   21.3970   12.0900 C   0  0  2  0  0  0  0  0  0  0  0  0
   20.9170   22.5630   12.2090 O   0  0  0  0  0  0  0  0  0  0  0  0
   19.0080   24.0120   13.2380 O   0  0  0  0  0  0  0  0  0  0  0  0
   16.3090   23.4630   11.0120 C   0  0  0  0  0  0  0  0  0  0  0  0
   16.7500   24.7320   10.5620 O   0  0  0  0  0  0  0  0  0  0  0  0
   21.7340   16.2730    9.7280 N   0  0  0  0  0  0  0  0  0  0  0  0
   22.7590   16.2350    8.6980 C   0  0  1  0  0  0  0  0  0  0  0  0
   25.0750   15.2120    9.1050 C   0  0  0  0  0  0  0  0  0  0  0  0
   23.6090   14.9340    8.7580 C   0  0  0  0  0  0  0  0  0  0  0  0
   23.0500   13.8650    9.7020 C   0  0  0  0  0  0  0  0  0  0  0  0
   22.1320   16.3990    7.3210 C   0  0  0  0  0  0  0  0  0  0  0  0
   22.4660   17.5190    6.3600 C   0  0  0  0  0  0  0  0  0  0  0  0
   22.9240   16.1170    6.0640 C   0  0  0  0  0  0  0  0  0  0  0  0
  1  7  2  0
  1  2  1  0
  2  3  2  0
  3  5  1  0
  3  4  1  0
  6  5  2  0
  7  6  1  0
  8  9  2  0
  8  7  1  0
  9 10  1  0
 10  6  1  0
 11 10  1  6
 12 13  1  0
 12 11  1  0
 12 17  1  1
 13 14  1  0
 13 18  1  1
 14 19  1  6
 14 16  1  0
 14 15  1  0
 16 11  1  0
 16 15  1  1
 20 19  1  0
 21  1  1  0
 22 24  1  0
 22 21  1  1
 24 23  1  0
 24 25  1  0
 26 22  1  0
 27 26  1  0
 28 27  1  0
 28 26  1  0
M  END
$$$$
