lig_331
     RDKit          3D

 26 29  0  0  0  0  0  0  0  0999 V2000
    0.8420  -16.1320   11.9290 C   0  0  0  0  0  0  0  0  0  0  0  0
    1.9120  -16.1280   12.8400 C   0  0  0  0  0  0  0  0  0  0  0  0
    2.3650  -17.3120   13.4220 C   0  0  0  0  0  0  0  0  0  0  0  0
    1.7550  -18.5240   13.1060 C   0  0  0  0  0  0  0  0  0  0  0  0
    0.6840  -18.5650   12.2040 C   0  0  0  0  0  0  0  0  0  0  0  0
    0.2400  -17.3650   11.6220 C   0  0  0  0  0  0  0  0  0  0  0  0
    0.8580  -12.8910    8.3060 F   0  0  0  0  0  0  0  0  0  0  0  0
    0.3840  -13.2760    9.4990 C   0  0  0  0  0  0  0  0  0  0  0  0
   -0.5540  -12.4840   10.1470 C   0  0  0  0  0  0  0  0  0  0  0  0
   -1.0440  -12.8840   11.3870 C   0  0  0  0  0  0  0  0  0  0  0  0
   -0.5870  -14.0730   11.9650 C   0  0  0  0  0  0  0  0  0  0  0  0
    0.3640  -14.8820   11.3160 C   0  0  0  0  0  0  0  0  0  0  0  0
    0.8440  -14.4610   10.0670 C   0  0  0  0  0  0  0  0  0  0  0  0
    0.0230  -19.8820   11.8550 C   0  0  0  0  0  0  0  0  0  0  0  0
   -0.0660  -20.8070   12.9970 N   0  0  0  0  0  0  0  0  0  0  0  0
   -0.9940  -20.2970   14.0350 C   0  0  0  0  0  0  0  0  0  0  0  0
   -1.1580  -21.2680   15.2270 C   0  0  0  0  0  0  0  0  0  0  0  0
   -1.5550  -22.6040   14.7600 N   0  0  0  0  0  0  0  0  0  0  0  0
   -1.8050  -23.5090   15.7950 C   0  0  0  0  0  0  0  0  0  0  0  0
   -1.7190  -24.8280   15.5430 N   0  0  0  0  0  0  0  0  0  0  0  0
   -1.9970  -25.6830   16.5460 C   0  0  0  0  0  0  0  0  0  0  0  0
   -2.3610  -25.2820   17.8030 C   0  0  0  0  0  0  0  0  0  0  0  0
   -2.4290  -23.9260   17.9770 C   0  0  0  0  0  0  0  0  0  0  0  0
   -2.1610  -23.0350   17.0030 N   0  0  0  0  0  0  0  0  0  0  0  0
   -0.7020  -23.1470   13.6940 C   0  0  0  0  0  0  0  0  0  0  0  0
   -0.5540  -22.1280   12.5420 C   0  0  0  0  0  0  0  0  0  0  0  0
  1  2  2  0
  2  3  1  0
  4  3  2  0
  5  4  1  0
  6  1  1  0
  6  5  2  0
  7  8  1  0
  8 13  2  0
  8  9  1  0
  9 10  2  0
 10 11  1  0
 12  1  1  0
 12 11  2  0
 13 12  1  0
 14  5  1  0
 14 15  1  0
 15 16  1  0
 16 17  1  0
 18 17  1  0
 18 19  1  0
 19 24  1  0
 20 19  2  0
 20 21  1  0
 21 22  2  0
 22 23  1  0
 24 23  2  0
 25 18  1  0
 26 15  1  0
 26 25  1  0
M  END
$$$$
