lig_184
     RDKit          3D

 36 40  0  0  1  0  0  0  0  0999 V2000
    1.5170   14.7220   13.3980 C   0  0  0  0  0  0  0  0  0  0  0  0
    0.6050   13.8920   14.2360 C   0  0  0  0  0  0  0  0  0  0  0  0
    0.9670   12.7270   14.8810 C   0  0  0  0  0  0  0  0  0  0  0  0
   -0.3250   12.0300   15.7460 S   0  0  0  0  0  0  0  0  0  0  0  0
   -1.4120   13.2800   15.2950 C   0  0  0  0  0  0  0  0  0  0  0  0
   -2.7540   13.5000   15.5810 C   0  0  0  0  0  0  0  0  0  0  0  0
   -3.3790   14.5840   15.0540 N   0  0  0  0  0  0  0  0  0  0  0  0
   -2.6940   15.4260   14.2820 C   0  0  0  0  0  0  0  0  0  0  0  0
   -3.3170   16.5410   13.7430 N   0  0  0  0  0  0  0  0  0  0  0  0
   -1.4140   15.2840   13.9590 N   0  0  0  0  0  0  0  0  0  0  0  0
   -0.7760   14.2060   14.4730 C   0  0  0  0  0  0  0  0  0  0  0  0
   -3.5650   12.5990   16.4510 C   0  0  0  0  0  0  0  0  0  0  0  0
   -3.4120   12.5750   17.6690 O   0  0  0  0  0  0  0  0  0  0  0  0
   -4.5010   11.7890   15.8200 N   0  0  0  0  0  0  0  0  0  0  0  0
   -5.2230   10.6920   16.4800 C   0  0  0  0  0  0  0  0  0  0  0  0
   -4.4380    9.7430   15.5530 C   0  0  0  0  0  0  0  0  0  0  0  0
   -4.2480   10.9640   14.6260 C   0  0  0  0  0  0  0  0  0  0  0  0
   -3.1730    9.2250   16.1540 N   0  0  0  0  0  0  0  0  0  0  0  0
   -3.0600    7.9080   16.5490 C   0  0  0  0  0  0  0  0  0  0  0  0
   -3.9870    7.1090   16.4680 O   0  0  0  0  0  0  0  0  0  0  0  0
   -1.7270    7.4670   17.0410 C   0  0  0  0  0  0  0  0  0  0  0  0
   -0.6500    8.3590   16.9270 C   0  0  0  0  0  0  0  0  0  0  0  0
    0.6200    7.9930   17.3750 C   0  0  0  0  0  0  0  0  0  0  0  0
    0.8230    6.7310   17.9300 C   0  0  0  0  0  0  0  0  0  0  0  0
   -0.2440    5.8370   18.0280 C   0  0  0  0  0  0  0  0  0  0  0  0
    0.0150    4.2730   18.6970 Cl  0  0  0  0  0  0  0  0  0  0  0  0
   -1.5170    6.1930   17.5840 C   0  0  0  0  0  0  0  0  0  0  0  0
   -4.7270   16.3950   13.4080 C   0  0  1  0  0  0  0  0  0  0  0  0
   -5.5090   17.6510   13.8090 C   0  0  0  0  0  0  0  0  0  0  0  0
   -4.8470   16.1330   11.9180 C   0  0  0  0  0  0  0  0  0  0  0  0
   -4.8740   17.1710   10.9840 C   0  0  0  0  0  0  0  0  0  0  0  0
   -4.9720   16.9930    9.6440 N   0  0  0  0  0  0  0  0  0  0  0  0
   -5.0400   15.7130    9.2080 C   0  0  0  0  0  0  0  0  0  0  0  0
   -5.0100   14.6180   10.0520 C   0  0  0  0  0  0  0  0  0  0  0  0
   -5.0760   13.3750    9.5610 F   0  0  0  0  0  0  0  0  0  0  0  0
   -4.9110   14.8250   11.4210 C   0  0  0  0  0  0  0  0  0  0  0  0
  1  2  1  0
  2 11  1  0
  2  3  2  0
  3  4  1  0
  5  6  2  0
  5  4  1  0
  6 12  1  0
  7  6  1  0
  8  7  2  0
  9  8  1  0
 10  8  1  0
 10 11  2  0
 11  5  1  0
 12 13  2  0
 14 12  1  0
 14 15  1  0
 16 18  1  0
 16 15  1  0
 17 16  1  0
 17 14  1  0
 18 19  1  0
 19 21  1  0
 20 19  2  0
 21 27  1  0
 22 21  2  0
 22 23  1  0
 23 24  2  0
 24 25  1  0
 25 26  1  0
 27 25  2  0
 28  9  1  0
 28 29  1  6
 30 28  1  0
 31 30  2  0
 32 31  1  0
 33 32  2  0
 33 34  1  0
 34 36  2  0
 35 34  1  0
 36 30  1  0
M  END
$$$$
