lig_086
     RDKit          3D

 30 33  0  0  1  0  0  0  0  0999 V2000
  -31.5510    7.6960    6.7880 C   0  0  0  0  0  0  0  0  0  0  0  0
  -32.5450    7.5420    5.8150 C   0  0  0  0  0  0  0  0  0  0  0  0
  -33.6220    6.6740    6.0220 C   0  0  0  0  0  0  0  0  0  0  0  0
  -33.7230    5.9450    7.2120 C   0  0  0  0  0  0  0  0  0  0  0  0
  -32.7260    6.0960    8.1810 C   0  0  0  0  0  0  0  0  0  0  0  0
  -31.6500    6.9650    7.9720 C   0  0  0  0  0  0  0  0  0  0  0  0
  -31.1400   10.5130    7.6290 O   0  0  0  0  0  0  0  0  0  0  0  0
  -30.3560    9.8990    6.9090 C   0  0  0  0  0  0  0  0  0  0  0  0
  -30.5040    8.5930    6.4940 N   0  0  0  0  0  0  0  0  0  0  0  0
  -29.1120   10.5790    6.4090 C   0  0  0  0  0  0  0  0  0  0  0  0
  -29.2460   11.8230    5.8970 C   0  0  0  0  0  0  0  0  0  0  0  0
  -28.0800   12.5300    5.3970 C   0  0  0  0  0  0  0  0  0  0  0  0
  -26.8550   11.9770    5.4290 C   0  0  0  0  0  0  0  0  0  0  0  0
  -26.6950   10.6700    5.9640 C   0  0  0  0  0  0  0  0  0  0  0  0
  -25.6190    9.8340    6.1420 C   0  0  0  0  0  0  0  0  0  0  0  0
  -26.1610    8.6820    6.7280 C   0  0  0  0  0  0  0  0  0  0  0  0
  -27.4790    8.7620    6.9150 N   0  0  0  0  0  0  0  0  0  0  0  0
  -27.8310   10.0020    6.4420 N   0  0  0  0  0  0  0  0  0  0  0  0
  -34.8710    4.9900    7.4320 C   0  0  0  0  0  0  0  0  0  0  0  0
  -34.5970    3.6210    6.7930 C   0  0  0  0  0  0  0  0  0  0  0  0
  -34.8100    2.4850    7.7020 N   0  0  0  0  0  0  0  0  0  0  0  0
  -34.1090    2.6360    8.9890 C   0  0  0  0  0  0  0  0  0  0  0  0
  -35.0160    2.3920   10.2190 C   0  0  1  0  0  0  0  0  0  0  0  0
  -35.8590    3.5930   10.5760 C   0  0  0  0  0  0  0  0  0  0  0  0
  -35.3090    4.7750   11.0830 C   0  0  0  0  0  0  0  0  0  0  0  0
  -36.1410    5.8460   11.4020 C   0  0  0  0  0  0  0  0  0  0  0  0
  -37.5030    5.6980   11.2090 C   0  0  0  0  0  0  0  0  0  0  0  0
  -38.0750    4.5710   10.7350 N   0  0  0  0  0  0  0  0  0  0  0  0
  -37.2440    3.5440   10.4410 C   0  0  0  0  0  0  0  0  0  0  0  0
  -35.8580    1.2610    9.9570 O   0  0  0  0  0  0  0  0  0  0  0  0
  1  6  2  0
  2  3  2  0
  2  1  1  0
  3  4  1  0
  4 19  1  0
  4  5  2  0
  6  5  1  0
  8  7  2  0
  9  1  1  0
  9  8  1  0
 10 18  1  0
 10  8  1  0
 11 10  2  0
 12 13  2  0
 12 11  1  0
 13 14  1  0
 14 15  2  0
 14 18  1  0
 15 16  1  0
 16 17  2  0
 18 17  1  0
 20 19  1  0
 20 21  1  0
 21 22  1  0
 23 22  1  0
 23 24  1  0
 24 25  2  0
 25 26  1  0
 27 26  2  0
 28 27  1  0
 29 24  1  0
 29 28  2  0
 23 30  1  6
M  END
$$$$
