lig_320
     RDKit          3D

 26 29  0  0  0  0  0  0  0  0999 V2000
   -0.2550  -12.6730    9.4270 C   0  0  0  0  0  0  0  0  0  0  0  0
    0.5150  -12.7280    8.2640 C   0  0  0  0  0  0  0  0  0  0  0  0
    1.5400  -13.5860    8.0530 N   0  0  0  0  0  0  0  0  0  0  0  0
    1.8230  -14.4490    9.0540 C   0  0  0  0  0  0  0  0  0  0  0  0
    1.1360  -14.4910   10.2610 C   0  0  0  0  0  0  0  0  0  0  0  0
    0.0830  -13.5840   10.4390 C   0  0  0  0  0  0  0  0  0  0  0  0
   -4.4770   -9.0190   10.0220 F   0  0  0  0  0  0  0  0  0  0  0  0
   -3.4700   -9.8900    9.8800 C   0  0  0  0  0  0  0  0  0  0  0  0
   -2.1860   -9.4200    9.6390 C   0  0  0  0  0  0  0  0  0  0  0  0
   -1.1360  -10.3310    9.4910 C   0  0  0  0  0  0  0  0  0  0  0  0
   -1.3600  -11.7160    9.5840 C   0  0  0  0  0  0  0  0  0  0  0  0
   -2.6730  -12.1610    9.8280 C   0  0  0  0  0  0  0  0  0  0  0  0
   -3.7240  -11.2530    9.9760 C   0  0  0  0  0  0  0  0  0  0  0  0
    1.5220  -15.4750   11.3370 C   0  0  0  0  0  0  0  0  0  0  0  0
    0.4120  -15.8110   12.2410 N   0  0  0  0  0  0  0  0  0  0  0  0
    0.8750  -15.9390   13.6470 C   0  0  0  0  0  0  0  0  0  0  0  0
    0.0720  -16.9450   14.5020 C   0  0  0  0  0  0  0  0  0  0  0  0
    0.1600  -18.2750   13.9000 N   0  0  0  0  0  0  0  0  0  0  0  0
   -0.3050  -19.3500   14.6250 C   0  0  0  0  0  0  0  0  0  0  0  0
   -0.6640  -19.1630   15.9070 N   0  0  0  0  0  0  0  0  0  0  0  0
   -1.0950  -20.2320   16.6030 C   0  0  0  0  0  0  0  0  0  0  0  0
   -1.1810  -21.4940   16.0760 C   0  0  0  0  0  0  0  0  0  0  0  0
   -0.7920  -21.5990   14.7660 C   0  0  0  0  0  0  0  0  0  0  0  0
   -0.3570  -20.5560   14.0320 N   0  0  0  0  0  0  0  0  0  0  0  0
    0.1720  -18.3610   12.4400 C   0  0  0  0  0  0  0  0  0  0  0  0
   -0.2950  -17.0330   11.7990 C   0  0  0  0  0  0  0  0  0  0  0  0
  1 11  1  0
  1  6  1  0
  2  1  2  0
  3  2  1  0
  3  4  2  0
  4  5  1  0
  5  6  2  0
  5 14  1  0
  8 13  2  0
  8  7  1  0
  9  8  1  0
 10 11  1  0
 10  9  2  0
 11 12  2  0
 12 13  1  0
 14 15  1  0
 15 16  1  0
 16 17  1  0
 18 17  1  0
 18 19  1  0
 19 20  2  0
 20 21  1  0
 22 21  2  0
 23 22  1  0
 24 19  1  0
 24 23  2  0
 25 18  1  0
 26 15  1  0
 26 25  1  0
M  END
$$$$
