lig_004
     RDKit          3D

 25 28  0  0  0  0  0  0  0  0999 V2000
   -3.0170    6.9670   16.6990 C   0  0  0  0  0  0  0  0  0  0  0  0
   -4.3600    7.0630   16.4780 C   0  0  0  0  0  0  0  0  0  0  0  0
   -4.9950    8.1860   15.9580 N   0  0  0  0  0  0  0  0  0  0  0  0
   -4.2860    9.2450   15.7000 C   0  0  0  0  0  0  0  0  0  0  0  0
   -4.8880   10.3640   15.1860 N   0  0  0  0  0  0  0  0  0  0  0  0
   -2.9160    9.2350   15.9470 N   0  0  0  0  0  0  0  0  0  0  0  0
   -1.9730   10.2100   15.8050 C   0  0  0  0  0  0  0  0  0  0  0  0
   -0.7960    9.7390   16.1490 N   0  0  0  0  0  0  0  0  0  0  0  0
   -0.9700    8.4300   16.5420 N   0  0  0  0  0  0  0  0  0  0  0  0
   -2.2510    8.1380   16.4260 C   0  0  0  0  0  0  0  0  0  0  0  0
    0.6630    4.7200   19.2400 C   0  0  0  0  0  0  0  0  0  0  0  0
   -0.6030    4.6510   18.4400 C   0  0  0  0  0  0  0  0  0  0  0  0
   -1.1950    5.8190   17.9660 C   0  0  0  0  0  0  0  0  0  0  0  0
   -2.3730    5.7320   17.2160 C   0  0  0  0  0  0  0  0  0  0  0  0
   -2.9020    4.4700   16.9450 C   0  0  0  0  0  0  0  0  0  0  0  0
   -2.2470    3.3700   17.4660 C   0  0  0  0  0  0  0  0  0  0  0  0
   -2.8460    1.7850   17.1960 Cl  0  0  0  0  0  0  0  0  0  0  0  0
   -1.1230    3.4260   18.2070 N   0  0  0  0  0  0  0  0  0  0  0  0
   -5.2880    5.9420   16.7750 C   0  0  0  0  0  0  0  0  0  0  0  0
   -6.0340    5.9120   17.9630 C   0  0  0  0  0  0  0  0  0  0  0  0
   -6.8980    4.8470   18.2270 C   0  0  0  0  0  0  0  0  0  0  0  0
   -7.0260    3.8220   17.2980 C   0  0  0  0  0  0  0  0  0  0  0  0
   -7.8580    2.8040   17.5490 F   0  0  0  0  0  0  0  0  0  0  0  0
   -6.3090    3.8410   16.1070 C   0  0  0  0  0  0  0  0  0  0  0  0
   -5.4440    4.9030   15.8420 C   0  0  0  0  0  0  0  0  0  0  0  0
  1 14  1  0
  2  1  2  0
  2 19  1  0
  3  2  1  0
  4  6  1  0
  4  3  2  0
  5  4  1  0
  6 10  1  0
  7  6  1  0
  7  8  2  0
  8  9  1  0
 10  9  2  0
 10  1  1  0
 12 11  1  0
 13 12  1  0
 14 13  2  0
 15 14  1  0
 15 16  2  0
 16 18  1  0
 17 16  1  0
 18 12  2  0
 19 20  1  0
 20 21  2  0
 22 23  1  0
 22 21  1  0
 24 22  2  0
 25 24  1  0
 25 19  2  0
M  END
$$$$
