lig_433
     RDKit          3D

 28 31  0  0  1  0  0  0  0  0999 V2000
    0.8450  -18.9920   13.7440 C   0  0  0  0  0  0  0  0  0  0  0  0
    1.5530  -18.8030   14.9350 C   0  0  0  0  0  0  0  0  0  0  0  0
    2.2730  -17.6390   15.1570 C   0  0  0  0  0  0  0  0  0  0  0  0
    2.2520  -16.6310   14.1940 C   0  0  0  0  0  0  0  0  0  0  0  0
    1.4940  -16.7810   13.0200 C   0  0  0  0  0  0  0  0  0  0  0  0
    0.7880  -17.9760   12.7800 C   0  0  0  0  0  0  0  0  0  0  0  0
   -0.0780  -18.1150   11.5490 C   0  0  0  0  0  0  0  0  0  0  0  0
    0.2950  -17.1830   10.4690 N   0  0  0  0  0  0  0  0  0  0  0  0
   -0.6200  -17.3200    9.3340 C   0  0  0  0  0  0  0  0  0  0  0  0
   -0.0970  -16.5070    8.1500 C   0  0  0  0  0  0  0  0  0  0  0  0
    0.1760  -15.0730    8.5300 C   0  0  0  0  0  0  0  0  0  0  0  0
    0.2540  -14.0940    7.5190 C   0  0  0  0  0  0  0  0  0  0  0  0
    0.4980  -12.7630    7.8460 C   0  0  0  0  0  0  0  0  0  0  0  0
    0.6620  -12.4250    9.1910 C   0  0  0  0  0  0  0  0  0  0  0  0
    0.6030  -13.3820   10.1980 C   0  0  0  0  0  0  0  0  0  0  0  0
    0.3890  -14.7320    9.8830 C   0  0  0  0  0  0  0  0  0  0  0  0
    0.3040  -15.7900   10.9850 C   0  0  2  0  0  0  0  0  0  0  0  0
    1.4750  -15.6710   11.9940 C   0  0  0  0  0  0  0  0  0  0  0  0
    1.5370  -19.7530   15.9170 O   0  0  0  0  0  0  0  0  0  0  0  0
    0.5900  -11.7150    6.9680 O   0  0  0  0  0  0  0  0  0  0  0  0
    1.6660  -11.7560    6.0370 C   0  0  0  0  0  0  0  0  0  0  0  0
    0.8840  -11.1230    9.5510 O   0  0  0  0  0  0  0  0  0  0  0  0
    0.1550  -20.1670   13.5650 O   0  0  0  0  0  0  0  0  0  0  0  0
    0.9610  -21.0980   12.8220 C   0  0  0  0  0  0  0  0  0  0  0  0
    1.2930  -22.2870   13.7240 C   0  0  0  0  0  0  0  0  0  0  0  0
    0.0560  -22.8190   14.4550 C   0  0  0  0  0  0  0  0  0  0  0  0
   -0.8180  -24.9110   15.6260 C   0  0  0  0  0  0  0  0  0  0  0  0
   -0.0410  -24.3460   14.4480 C   0  0  0  0  0  0  0  0  0  0  0  0
  1  2  2  0
  2  3  1  0
  2 19  1  0
  4  3  2  0
  5  4  1  0
  6  5  2  0
  6  1  1  0
  7  6  1  0
  8  9  1  0
  8 17  1  0
  8  7  1  0
 10 11  1  0
 10  9  1  0
 11 16  1  0
 12 13  1  0
 12 11  2  0
 13 14  2  0
 14 22  1  0
 14 15  1  0
 16 15  2  0
 16 17  1  0
 17 18  1  1
 18  5  1  0
 20 13  1  0
 21 20  1  0
 23  1  1  0
 24 23  1  0
 24 25  1  0
 25 26  1  0
 28 26  1  0
 28 27  1  0
M  END
$$$$
