lig_352
     RDKit          3D

 26 29  0  0  0  0  0  0  0  0999 V2000
    0.1180  -15.7970   11.4850 N   0  0  0  0  0  0  0  0  0  0  0  0
   -0.2940  -17.2220   11.3710 C   0  0  0  0  0  0  0  0  0  0  0  0
   -0.0050  -17.9880   12.6830 C   0  0  0  0  0  0  0  0  0  0  0  0
    1.4330  -18.0200   13.0550 N   0  0  0  0  0  0  0  0  0  0  0  0
    2.1210  -16.7850   12.6110 C   0  0  0  0  0  0  0  0  0  0  0  0
    1.2070  -15.5520   12.4520 C   0  0  0  0  0  0  0  0  0  0  0  0
   -0.0550  -13.7830   10.0960 C   0  0  0  0  0  0  0  0  0  0  0  0
   -0.0750  -13.1470    8.8500 C   0  0  0  0  0  0  0  0  0  0  0  0
    0.1640  -13.8820    7.6950 C   0  0  0  0  0  0  0  0  0  0  0  0
    0.4060  -15.2490    7.7870 C   0  0  0  0  0  0  0  0  0  0  0  0
    0.4010  -15.8860    9.0350 C   0  0  0  0  0  0  0  0  0  0  0  0
    0.1650  -15.1750   10.2220 C   0  0  0  0  0  0  0  0  0  0  0  0
   -0.3030  -13.0120   11.2070 O   0  0  0  0  0  0  0  0  0  0  0  0
   -1.4270  -12.1500   10.9920 C   0  0  0  0  0  0  0  0  0  0  0  0
   -0.0560  -10.2440   10.9220 F   0  0  0  0  0  0  0  0  0  0  0  0
   -1.1710  -10.7480   11.5190 C   0  0  0  0  0  0  0  0  0  0  0  0
    1.6170  -18.2490   14.4960 C   0  0  0  0  0  0  0  0  0  0  0  0
    0.7160  -19.3330   14.9840 C   0  0  0  0  0  0  0  0  0  0  0  0
   -0.4130  -19.1880   15.8180 C   0  0  0  0  0  0  0  0  0  0  0  0
   -1.0140  -20.3420   16.1050 N   0  0  0  0  0  0  0  0  0  0  0  0
   -0.2800  -21.2830   15.4540 N   0  0  0  0  0  0  0  0  0  0  0  0
   -0.4990  -22.6620   15.4400 C   0  0  0  0  0  0  0  0  0  0  0  0
    0.3220  -23.4680   14.7480 C   0  0  0  0  0  0  0  0  0  0  0  0
    1.4300  -22.8790   14.0180 C   0  0  0  0  0  0  0  0  0  0  0  0
    1.6530  -21.5510   14.0260 C   0  0  0  0  0  0  0  0  0  0  0  0
    0.7840  -20.6950   14.7640 C   0  0  0  0  0  0  0  0  0  0  0  0
  1  6  1  0
  2  1  1  0
  2  3  1  0
  3  4  1  0
  4 17  1  0
  5  4  1  0
  6  5  1  0
  7 12  1  0
  7 13  1  0
  8  7  2  0
  9 10  2  0
  9  8  1  0
 10 11  1  0
 11 12  2  0
 12  1  1  0
 14 13  1  0
 14 16  1  0
 15 16  1  0
 17 18  1  0
 18 19  1  0
 19 20  2  0
 21 20  1  0
 22 21  1  0
 23 22  2  0
 24 25  2  0
 24 23  1  0
 25 26  1  0
 26 18  2  0
 26 21  1  0
M  END
$$$$
