lig_182
     RDKit          3D

 37 42  0  0  1  0  0  0  0  0999 V2000
    0.9380  -18.9810   12.5120 C   0  0  1  0  0  0  0  0  0  0  0  0
    0.4820  -19.1390   13.9660 C   0  0  0  0  0  0  0  0  0  0  0  0
    0.9130  -20.4830   14.5470 C   0  0  0  0  0  0  0  0  0  0  0  0
    0.4190  -21.6660   13.6970 C   0  0  1  0  0  0  0  0  0  0  0  0
    0.8650  -21.5000   12.2360 C   0  0  0  0  0  0  0  0  0  0  0  0
    0.4380  -20.1500   11.6590 C   0  0  0  0  0  0  0  0  0  0  0  0
    2.2870  -16.4940   12.6500 O   0  0  0  0  0  0  0  0  0  0  0  0
    1.1820  -16.5480   12.1210 C   0  0  0  0  0  0  0  0  0  0  0  0
    0.4680  -17.7180   11.9620 N   0  0  0  0  0  0  0  0  0  0  0  0
    0.5540  -15.3110   11.5810 C   0  0  0  0  0  0  0  0  0  0  0  0
    0.8240  -14.8430   10.2900 C   0  0  0  0  0  0  0  0  0  0  0  0
    0.2070  -13.6760    9.8170 C   0  0  0  0  0  0  0  0  0  0  0  0
   -0.6900  -12.9740   10.6350 C   0  0  0  0  0  0  0  0  0  0  0  0
   -0.9700  -13.4560   11.9220 C   0  0  0  0  0  0  0  0  0  0  0  0
   -0.3560  -14.6220   12.3900 C   0  0  0  0  0  0  0  0  0  0  0  0
   -1.3290  -11.7840   10.1800 N   0  0  0  0  0  0  0  0  0  0  0  0
   -2.6170  -11.3560   10.4330 C   0  0  0  0  0  0  0  0  0  0  0  0
   -2.7830  -10.1560    9.7850 C   0  0  0  0  0  0  0  0  0  0  0  0
   -1.5510   -9.9240    9.1590 C   0  0  0  0  0  0  0  0  0  0  0  0
   -0.6700  -10.8970    9.3890 N   0  0  0  0  0  0  0  0  0  0  0  0
    0.9140  -22.9910   14.3150 C   0  0  0  0  0  0  0  0  0  0  0  0
   -0.0650  -24.1590   14.1180 C   0  0  0  0  0  0  0  0  0  0  0  0
   -1.1270  -24.1960   15.1420 N   0  0  0  0  0  0  0  0  0  0  0  0
   -0.6590  -23.5260   16.3660 C   0  0  0  0  0  0  0  0  0  0  0  0
   -1.6780  -23.6910   17.4910 C   0  0  0  0  0  0  0  0  0  0  0  0
   -3.0560  -23.1140   17.1290 C   0  0  0  0  0  0  0  0  0  0  0  0
   -3.4790  -23.6030   15.7320 C   0  0  0  0  0  0  0  0  0  0  0  0
   -2.3710  -23.5720   14.6720 C   0  0  0  0  0  0  0  0  0  0  0  0
   -3.1370  -21.6160   17.3980 C   0  0  0  0  0  0  0  0  0  0  0  0
   -2.0820  -20.7220   17.1510 C   0  0  0  0  0  0  0  0  0  0  0  0
   -2.1900  -19.3470   17.4390 C   0  0  0  0  0  0  0  0  0  0  0  0
   -3.3630  -18.8230   17.9740 C   0  0  0  0  0  0  0  0  0  0  0  0
   -4.4060  -19.6940   18.1900 C   0  0  0  0  0  0  0  0  0  0  0  0
   -4.3090  -21.0540   17.9160 C   0  0  0  0  0  0  0  0  0  0  0  0
   -5.5850  -21.6980   18.3220 C   0  0  0  0  0  0  0  0  0  0  0  0
   -6.4640  -20.4550   18.4510 C   0  0  0  0  0  0  0  0  0  0  0  0
   -5.6210  -19.3120   18.7030 O   0  0  0  0  0  0  0  0  0  0  0  0
  1  9  1  6
  1  2  1  0
  2  3  1  0
  4 21  1  1
  4  3  1  0
  5  4  1  0
  6  5  1  0
  6  1  1  0
  8  7  2  0
  9  8  1  0
 10  8  1  0
 10 15  2  0
 11 10  1  0
 12 11  2  0
 12 13  1  0
 13 14  2  0
 14 15  1  0
 16 17  1  0
 16 13  1  0
 18 17  2  0
 19 20  2  0
 19 18  1  0
 20 16  1  0
 22 21  1  0
 22 23  1  0
 23 24  1  0
 24 25  1  0
 26 29  1  0
 26 25  1  0
 27 26  1  0
 28 23  1  0
 28 27  1  0
 29 34  1  0
 30 29  2  0
 30 31  1  0
 31 32  2  0
 32 33  1  0
 33 37  1  0
 34 33  2  0
 34 35  1  0
 35 36  1  0
 36 37  1  0
M  END
$$$$
