lig_076
     RDKit          3D

 32 34  0  0  0  0  0  0  0  0999 V2000
    0.3000  -15.5860   11.9560 N   0  0  0  0  0  0  0  0  0  0  0  0
   -0.1530  -16.9590   11.6270 C   0  0  0  0  0  0  0  0  0  0  0  0
    0.0020  -17.8880   12.8560 C   0  0  0  0  0  0  0  0  0  0  0  0
    1.3790  -17.9010   13.3810 N   0  0  0  0  0  0  0  0  0  0  0  0
    1.8070  -16.5250   13.6990 C   0  0  0  0  0  0  0  0  0  0  0  0
    1.6860  -15.5810   12.4790 C   0  0  0  0  0  0  0  0  0  0  0  0
   -0.7100  -12.6530   10.1060 C   0  0  0  0  0  0  0  0  0  0  0  0
   -0.5320  -13.5110   11.1270 N   0  0  0  0  0  0  0  0  0  0  0  0
    0.1090  -14.6700   10.9020 C   0  0  0  0  0  0  0  0  0  0  0  0
    0.5360  -14.9980    9.6300 C   0  0  0  0  0  0  0  0  0  0  0  0
    0.3100  -14.0830    8.6160 C   0  0  0  0  0  0  0  0  0  0  0  0
   -0.3200  -12.9060    8.8470 N   0  0  0  0  0  0  0  0  0  0  0  0
   -1.1040  -10.3350    9.3010 C   0  0  0  0  0  0  0  0  0  0  0  0
   -1.4770  -11.3620   10.3830 C   0  0  0  0  0  0  0  0  0  0  0  0
   -2.9970  -11.6100   10.3490 C   0  0  0  0  0  0  0  0  0  0  0  0
   -1.1200  -10.7910   11.7690 C   0  0  0  0  0  0  0  0  0  0  0  0
    0.7440  -14.4370    7.2060 C   0  0  0  0  0  0  0  0  0  0  0  0
   -0.2880  -14.3950    6.3150 F   0  0  0  0  0  0  0  0  0  0  0  0
    1.7120  -13.6230    6.6960 F   0  0  0  0  0  0  0  0  0  0  0  0
    1.2490  -15.7040    7.1160 F   0  0  0  0  0  0  0  0  0  0  0  0
    1.5840  -18.8460   14.4850 C   0  0  0  0  0  0  0  0  0  0  0  0
    0.3350  -19.2740   15.2720 C   0  0  0  0  0  0  0  0  0  0  0  0
    0.3470  -20.7650   15.6340 C   0  0  0  0  0  0  0  0  0  0  0  0
    0.9070  -21.6800   14.5370 C   0  0  0  0  0  0  0  0  0  0  0  0
   -0.0980  -22.4910   13.8570 N   0  0  0  0  0  0  0  0  0  0  0  0
   -0.8180  -23.4320   14.5760 C   0  0  0  0  0  0  0  0  0  0  0  0
   -1.7540  -24.1880   13.9860 C   0  0  0  0  0  0  0  0  0  0  0  0
   -2.0200  -24.0210   12.5820 C   0  0  0  0  0  0  0  0  0  0  0  0
   -1.3550  -23.1190   11.8540 C   0  0  0  0  0  0  0  0  0  0  0  0
   -0.3170  -22.2700   12.4940 C   0  0  0  0  0  0  0  0  0  0  0  0
    0.2870  -21.4420   11.8170 O   0  0  0  0  0  0  0  0  0  0  0  0
   -2.9850  -24.8180   12.0120 O   0  0  0  0  0  0  0  0  0  0  0  0
  1  6  1  0
  2  1  1  0
  2  3  1  0
  3  4  1  0
  4  5  1  0
  4 21  1  0
  6  5  1  0
  7 14  1  0
  7  8  2  0
  9  8  1  0
  9  1  1  0
 10  9  2  0
 11 12  2  0
 11 10  1  0
 12  7  1  0
 13 14  1  0
 14 16  1  0
 15 14  1  0
 17 11  1  0
 18 17  1  0
 19 17  1  0
 20 17  1  0
 21 22  1  0
 22 23  1  0
 24 23  1  0
 25 24  1  0
 25 26  1  0
 27 26  2  0
 28 27  1  0
 29 30  1  0
 29 28  2  0
 30 25  1  0
 31 30  2  0
 32 28  1  0
M  END
$$$$
