lig_360
     RDKit          3D

 29 32  0  0  0  0  0  0  0  0999 V2000
    0.9390  -15.4040   12.3440 C   0  0  0  0  0  0  0  0  0  0  0  0
    0.2970  -14.4030   11.4260 C   0  0  0  0  0  0  0  0  0  0  0  0
   -0.7290  -13.4970   11.9230 C   0  0  0  0  0  0  0  0  0  0  0  0
   -1.1060  -12.6460   10.9520 C   0  0  0  0  0  0  0  0  0  0  0  0
   -0.3440  -13.0270    9.7610 C   0  0  0  0  0  0  0  0  0  0  0  0
   -0.4600  -12.4570    8.5510 C   0  0  0  0  0  0  0  0  0  0  0  0
    0.2620  -12.7580    7.3360 C   0  0  0  0  0  0  0  0  0  0  0  0
    1.2060  -13.6810    7.1100 C   0  0  0  0  0  0  0  0  0  0  0  0
    1.7710  -14.6520    8.0140 C   0  0  0  0  0  0  0  0  0  0  0  0
    1.4960  -14.8570    9.3080 C   0  0  0  0  0  0  0  0  0  0  0  0
    0.5460  -14.1370   10.1220 C   0  0  0  0  0  0  0  0  0  0  0  0
   -2.1730  -11.5970   11.0590 C   0  0  0  0  0  0  0  0  0  0  0  0
   -1.7620  -10.1880   10.9700 N   0  0  0  0  0  0  0  0  0  0  0  0
   -2.0470   -9.5790    9.6760 C   0  0  0  0  0  0  0  0  0  0  0  0
   -0.3680   -9.9790   11.3510 C   0  0  0  0  0  0  0  0  0  0  0  0
    0.1890  -19.6500   12.2980 N   0  0  0  0  0  0  0  0  0  0  0  0
   -0.6780  -18.7720   11.4760 C   0  0  0  0  0  0  0  0  0  0  0  0
   -0.5580  -17.2920   11.9130 C   0  0  0  0  0  0  0  0  0  0  0  0
    0.8390  -16.7960   11.8800 N   0  0  0  0  0  0  0  0  0  0  0  0
    1.6820  -17.6760   12.7210 C   0  0  0  0  0  0  0  0  0  0  0  0
    1.5830  -19.1710   12.3330 C   0  0  0  0  0  0  0  0  0  0  0  0
   -1.1130  -21.4530   13.3520 C   0  0  0  0  0  0  0  0  0  0  0  0
   -1.7950  -21.9870   14.4530 C   0  0  0  0  0  0  0  0  0  0  0  0
   -1.7500  -21.3410   15.6820 C   0  0  0  0  0  0  0  0  0  0  0  0
   -1.0240  -20.1620   15.8050 C   0  0  0  0  0  0  0  0  0  0  0  0
   -0.3670  -19.6170   14.6920 C   0  0  0  0  0  0  0  0  0  0  0  0
   -0.4180  -20.2200   13.4240 C   0  0  0  0  0  0  0  0  0  0  0  0
   -1.6000  -23.5520   12.5130 C   0  0  0  0  0  0  0  0  0  0  0  0
   -1.1780  -22.2200   12.2090 O   0  0  0  0  0  0  0  0  0  0  0  0
  2  3  1  0
  2  1  1  0
  4 12  1  0
  4  3  2  0
  5 11  1  0
  5  4  1  0
  6  5  2  0
  7  6  1  0
  8  7  2  0
  8  9  1  0
  9 10  2  0
 10 11  1  0
 11  2  2  0
 13 12  1  0
 13 15  1  0
 14 13  1  0
 16 21  1  0
 16 27  1  0
 17 18  1  0
 17 16  1  0
 19 18  1  0
 19  1  1  0
 19 20  1  0
 21 20  1  0
 22 27  1  0
 22 23  2  0
 23 24  1  0
 24 25  2  0
 26 25  1  0
 27 26  2  0
 29 28  1  0
 29 22  1  0
M  END
$$$$
