lig_024
     RDKit          3D

 23 25  0  0  1  0  0  0  0  0999 V2000
   -0.7450  -17.8580   11.3150 O   0  0  0  0  0  0  0  0  0  0  0  0
    0.1010  -17.1620   11.8540 C   0  0  0  0  0  0  0  0  0  0  0  0
    0.6580  -17.4440   13.1070 N   0  0  0  0  0  0  0  0  0  0  0  0
    1.4670  -16.3490   13.5740 C   0  0  0  0  0  0  0  0  0  0  0  0
    1.7190  -15.5330   12.3160 C   0  0  0  0  0  0  0  0  0  0  0  0
    0.6960  -15.9680   11.3870 N   0  0  0  0  0  0  0  0  0  0  0  0
    0.4550  -15.3230   10.1440 C   0  0  0  0  0  0  0  0  0  0  0  0
    0.0760  -16.0670    9.0170 C   0  0  0  0  0  0  0  0  0  0  0  0
   -0.1660  -15.4510    7.7850 C   0  0  0  0  0  0  0  0  0  0  0  0
   -0.0290  -14.0730    7.6550 C   0  0  0  0  0  0  0  0  0  0  0  0
    0.3560  -13.3010    8.7560 C   0  0  0  0  0  0  0  0  0  0  0  0
    0.5890  -13.9370    9.9920 C   0  0  0  0  0  0  0  0  0  0  0  0
    0.5000  -11.8040    8.6440 C   0  0  0  0  0  0  0  0  0  0  0  0
    1.1790  -11.2500    9.6900 F   0  0  0  0  0  0  0  0  0  0  0  0
   -0.6960  -11.1550    8.6000 F   0  0  0  0  0  0  0  0  0  0  0  0
    1.1770  -11.4260    7.5250 F   0  0  0  0  0  0  0  0  0  0  0  0
    0.1950  -18.5090   13.9820 C   0  0  0  0  0  0  0  0  0  0  0  0
    0.5560  -19.9380   13.5050 C   0  0  1  0  0  0  0  0  0  0  0  0
    1.2360  -20.7640   14.6110 C   0  0  0  0  0  0  0  0  0  0  0  0
    1.5180  -22.1930   14.1530 C   0  0  0  0  0  0  0  0  0  0  0  0
    0.2580  -22.8400   13.5880 C   0  0  0  0  0  0  0  0  0  0  0  0
   -0.3790  -21.9560   12.5210 C   0  0  0  0  0  0  0  0  0  0  0  0
   -0.6690  -20.6140   13.0310 N   0  0  0  0  0  0  0  0  0  0  0  0
  1  2  2  0
  2  3  1  0
  3  4  1  0
  3 17  1  0
  5  4  1  0
  6  2  1  0
  6  5  1  0
  7  6  1  0
  8  7  1  0
  9  8  2  0
 10  9  1  0
 10 11  2  0
 11 12  1  0
 12  7  2  0
 13 11  1  0
 13 14  1  0
 15 13  1  0
 16 13  1  0
 18 17  1  1
 18 19  1  0
 20 19  1  0
 21 20  1  0
 22 23  1  0
 22 21  1  0
 23 18  1  0
M  END
$$$$
