lig_041
     RDKit          3D

 30 32  0  0  1  0  0  0  0  0999 V2000
  -26.0080    5.2790    9.5270 N   0  0  0  0  0  0  0  0  0  0  0  0
  -25.9240    3.9570    9.9570 C   0  0  0  0  0  0  0  0  0  0  0  0
  -26.9270    3.0600    9.5660 C   0  0  0  0  0  0  0  0  0  0  0  0
  -26.8830    1.7090    9.9250 C   0  0  0  0  0  0  0  0  0  0  0  0
  -25.8120    1.2110   10.6710 C   0  0  0  0  0  0  0  0  0  0  0  0
  -24.7780    2.0860   11.0230 C   0  0  0  0  0  0  0  0  0  0  0  0
  -24.8330    3.4370   10.6580 C   0  0  0  0  0  0  0  0  0  0  0  0
  -25.7600   -0.2400   11.0790 C   0  0  0  0  0  0  0  0  0  0  0  0
  -27.0030   -0.7230   11.8150 C   0  0  0  0  0  0  0  0  0  0  0  0
  -27.8640   -1.3620   11.2150 O   0  0  0  0  0  0  0  0  0  0  0  0
  -27.0420   -0.3190   13.1320 N   0  0  0  0  0  0  0  0  0  0  0  0
  -28.0290   -0.5620   14.0500 C   0  0  0  0  0  0  0  0  0  0  0  0
  -27.9050   -0.1540   15.2930 N   0  0  0  0  0  0  0  0  0  0  0  0
  -29.0300   -0.5150   16.0110 C   0  0  0  0  0  0  0  0  0  0  0  0
  -29.9950   -1.1920   15.2970 C   0  0  0  0  0  0  0  0  0  0  0  0
  -29.4750   -1.3810   13.6760 S   0  0  0  0  0  0  0  0  0  0  0  0
  -25.3020    5.7580    8.3360 C   0  0  0  0  0  0  0  0  0  0  0  0
  -27.4680    6.9800    7.9700 C   0  0  0  0  0  0  0  0  0  0  0  0
  -26.2480    6.3750    7.2630 C   0  0  1  0  0  0  0  0  0  0  0  0
  -25.6520    7.4570    6.4470 N   0  0  0  0  0  0  0  0  0  0  0  0
  -25.9730    8.8040    6.9380 C   0  0  0  0  0  0  0  0  0  0  0  0
  -26.2130    9.8350    5.8040 C   0  0  1  0  0  0  0  0  0  0  0  0
  -27.4840   10.6450    5.9630 C   0  0  0  0  0  0  0  0  0  0  0  0
  -27.5860   11.9250    5.3940 C   0  0  0  0  0  0  0  0  0  0  0  0
  -28.7540   12.6770    5.5380 C   0  0  0  0  0  0  0  0  0  0  0  0
  -29.8340   12.1610    6.2520 C   0  0  0  0  0  0  0  0  0  0  0  0
  -29.7430   10.8920    6.8200 C   0  0  0  0  0  0  0  0  0  0  0  0
  -31.0740   10.2540    7.7030 Cl  0  0  0  0  0  0  0  0  0  0  0  0
  -28.5790   10.1370    6.6800 C   0  0  0  0  0  0  0  0  0  0  0  0
  -25.0930   10.7250    5.7410 O   0  0  0  0  0  0  0  0  0  0  0  0
  1  2  1  0
  2  7  2  0
  3  4  2  0
  3  2  1  0
  4  5  1  0
  5  6  2  0
  5  8  1  0
  7  6  1  0
  8  9  1  0
  9 11  1  0
 10  9  2  0
 11 12  1  0
 12 13  2  0
 13 14  1  0
 15 14  2  0
 16 12  1  0
 16 15  1  0
 17  1  1  0
 19 18  1  1
 19 17  1  0
 20 21  1  0
 20 19  1  0
 22 23  1  0
 22 21  1  0
 23 29  1  0
 24 25  1  0
 24 23  2  0
 25 26  2  0
 26 27  1  0
 27 28  1  0
 29 27  2  0
 22 30  1  1
M  END
$$$$
