lig_411
     RDKit          3D

 24 26  0  0  1  0  0  0  0  0999 V2000
   -2.6790    9.9230   15.8540 C   0  0  0  0  0  0  0  0  0  0  0  0
   -3.8690    9.6630   15.6720 O   0  0  0  0  0  0  0  0  0  0  0  0
   -1.7670    9.0140   16.3500 N   0  0  0  0  0  0  0  0  0  0  0  0
   -2.1260    7.7480   16.7280 C   0  0  0  0  0  0  0  0  0  0  0  0
   -1.3240    6.8520   17.2440 N   0  0  0  0  0  0  0  0  0  0  0  0
   -2.1440    5.7560   17.4480 C   0  0  0  0  0  0  0  0  0  0  0  0
   -3.4190    5.9550   17.0720 N   0  0  0  0  0  0  0  0  0  0  0  0
   -3.3810    7.2190   16.6240 N   0  0  0  0  0  0  0  0  0  0  0  0
   -1.6450    4.5070   18.0200 C   0  0  0  0  0  0  0  0  0  0  0  0
   -0.3700    4.4370   18.5970 C   0  0  0  0  0  0  0  0  0  0  0  0
    0.1010    3.2390   19.1430 C   0  0  0  0  0  0  0  0  0  0  0  0
   -0.7000    2.0990   19.1180 C   0  0  0  0  0  0  0  0  0  0  0  0
   -1.9700    2.1540   18.5480 C   0  0  0  0  0  0  0  0  0  0  0  0
   -2.4410    3.3520   18.0020 C   0  0  0  0  0  0  0  0  0  0  0  0
   -1.3570   11.1530   14.1020 C   0  0  0  0  0  0  0  0  0  0  0  0
   -2.0370   11.2660   15.4620 C   0  0  1  0  0  0  0  0  0  0  0  0
   -3.0790   12.2430   15.4110 O   0  0  0  0  0  0  0  0  0  0  0  0
   -2.8500   13.4900   15.9210 C   0  0  0  0  0  0  0  0  0  0  0  0
   -2.3690   13.4940   17.2350 C   0  0  0  0  0  0  0  0  0  0  0  0
   -2.0880   14.6940   17.8910 C   0  0  0  0  0  0  0  0  0  0  0  0
   -2.2940   15.9050   17.2340 C   0  0  0  0  0  0  0  0  0  0  0  0
   -2.7820   15.9030   15.9300 C   0  0  0  0  0  0  0  0  0  0  0  0
   -3.0460   17.4000   15.1200 Cl  0  0  0  0  0  0  0  0  0  0  0  0
   -3.0630   14.7040   15.2690 C   0  0  0  0  0  0  0  0  0  0  0  0
  1  3  1  0
  2  1  2  0
  3  4  1  0
  4  5  2  0
  5  6  1  0
  6  9  1  0
  7  6  2  0
  8  4  1  0
  8  7  1  0
  9 10  2  0
 10 11  1  0
 12 11  2  0
 13 12  1  0
 14  9  1  0
 14 13  2  0
 16 15  1  6
 16  1  1  0
 17 16  1  0
 17 18  1  0
 18 19  2  0
 19 20  1  0
 21 20  2  0
 22 21  1  0
 23 22  1  0
 24 18  1  0
 24 22  2  0
M  END
$$$$
