lig_038
     RDKit          3D

 34 38  0  0  1  0  0  0  0  0999 V2000
   -3.1440    6.2230   16.7590 C   0  0  0  0  0  0  0  0  0  0  0  0
   -4.0940    7.1810   16.3880 C   0  0  0  0  0  0  0  0  0  0  0  0
   -3.7210    8.5170   16.2050 C   0  0  0  0  0  0  0  0  0  0  0  0
   -4.7240    9.4540   15.8310 N   0  0  0  0  0  0  0  0  0  0  0  0
   -4.3980   10.7070   15.6350 C   0  0  0  0  0  0  0  0  0  0  0  0
   -5.3370   11.6390   15.2730 N   0  0  0  0  0  0  0  0  0  0  0  0
   -3.0620   11.1160   15.8120 N   0  0  0  0  0  0  0  0  0  0  0  0
   -2.6280   12.3860   15.6940 N   0  0  0  0  0  0  0  0  0  0  0  0
   -1.3290   12.2530   15.9990 C   0  0  0  0  0  0  0  0  0  0  0  0
   -0.9360   10.9720   16.3220 N   0  0  0  0  0  0  0  0  0  0  0  0
   -2.0510   10.2830   16.1930 C   0  0  0  0  0  0  0  0  0  0  0  0
   -2.3690    8.8880   16.3970 C   0  0  0  0  0  0  0  0  0  0  0  0
   -1.4150    7.9450   16.7670 C   0  0  0  0  0  0  0  0  0  0  0  0
   -1.8140    6.6240   16.9440 C   0  0  0  0  0  0  0  0  0  0  0  0
   -0.8860    5.7220   17.3020 F   0  0  0  0  0  0  0  0  0  0  0  0
   -0.3760   13.4080   16.0180 C   0  0  1  0  0  0  0  0  0  0  0  0
    0.5800   13.3830   14.8080 C   0  0  0  0  0  0  0  0  0  0  0  0
    1.0630   14.7980   14.4570 C   0  0  1  0  0  0  0  0  0  0  0  0
    2.1020   14.7610   13.3380 C   0  0  0  0  0  0  0  0  0  0  0  0
   -0.1260   15.7020   14.0700 C   0  0  0  0  0  0  0  0  0  0  0  0
   -1.3430   15.3690   14.8330 N   0  0  0  0  0  0  0  0  0  0  0  0
   -2.5300   15.1700   14.1450 C   0  0  0  0  0  0  0  0  0  0  0  0
   -2.7160   15.3360   12.8760 N   0  0  0  0  0  0  0  0  0  0  0  0
   -4.1070   14.8960   12.6220 C   0  0  1  0  0  0  0  0  0  0  0  0
   -4.7510   14.5230   13.9090 N   0  0  0  0  0  0  0  0  0  0  0  0
   -3.8130   14.7330   14.7640 C   0  0  0  0  0  0  0  0  0  0  0  0
   -1.0910   14.7690   16.1500 C   0  0  0  0  0  0  0  0  0  0  0  0
   -4.9080   16.0330   11.9790 C   0  0  0  0  0  0  0  0  0  0  0  0
   -5.6290   15.6630   10.6670 C   0  0  0  0  0  0  0  0  0  0  0  0
   -5.2970   16.7100    9.5960 C   0  0  0  0  0  0  0  0  0  0  0  0
   -5.2800   14.2670   10.1470 C   0  0  0  0  0  0  0  0  0  0  0  0
   -7.0420   15.7210   10.8970 O   0  0  0  0  0  0  0  0  0  0  0  0
   -4.5260    4.5620   17.7630 C   0  0  0  0  0  0  0  0  0  0  0  0
   -3.3960    4.8940   16.9660 O   0  0  0  0  0  0  0  0  0  0  0  0
  1 14  1  0
  1 34  1  0
  2  1  2  0
  3  2  1  0
  3 12  2  0
  4  3  1  0
  5  7  1  0
  5  4  2  0
  6  5  1  0
  7 11  1  0
  8  7  1  0
  8  9  2  0
  9 10  1  0
 11 10  2  0
 11 12  1  0
 12 13  1  0
 13 14  2  0
 14 15  1  0
 16  9  1  6
 16 27  1  0
 17 16  1  0
 18 19  1  6
 18 17  1  0
 20 18  1  0
 20 21  1  0
 21 27  1  0
 22 26  1  0
 22 21  1  0
 23 22  2  0
 24 28  1  1
 24 23  1  0
 24 25  1  0
 25 26  2  0
 29 32  1  0
 29 28  1  0
 30 29  1  0
 31 29  1  0
 34 33  1  0
M  END
$$$$
