lig_416
     RDKit          3D

 24 25  0  0  0  0  0  0  0  0999 V2000
    0.8100  -17.5660   12.4580 N   0  0  0  0  0  0  0  0  0  0  0  0
    2.3110  -16.9570   14.4260 C   0  0  0  0  0  0  0  0  0  0  0  0
    2.1270  -17.1280   12.9240 C   0  0  0  0  0  0  0  0  0  0  0  0
    0.0880  -16.5730   11.6470 C   0  0  0  0  0  0  0  0  0  0  0  0
   -0.2310  -15.2140   12.2990 C   0  0  0  0  0  0  0  0  0  0  0  0
   -0.2540  -14.1000   11.2760 C   0  0  0  0  0  0  0  0  0  0  0  0
    0.5290  -14.1920   10.1150 C   0  0  0  0  0  0  0  0  0  0  0  0
    0.5240  -13.1590    9.1810 C   0  0  0  0  0  0  0  0  0  0  0  0
   -0.2600  -12.0360    9.4110 C   0  0  0  0  0  0  0  0  0  0  0  0
   -1.0470  -11.9150   10.5620 C   0  0  0  0  0  0  0  0  0  0  0  0
   -1.0380  -12.9530   11.4950 C   0  0  0  0  0  0  0  0  0  0  0  0
   -0.2460  -11.0350    8.4780 O   0  0  0  0  0  0  0  0  0  0  0  0
   -1.7640  -10.7490   10.6520 O   0  0  0  0  0  0  0  0  0  0  0  0
   -3.1520  -10.8300   10.3510 C   0  0  0  0  0  0  0  0  0  0  0  0
   -0.0310  -18.2430   13.4520 C   0  0  0  0  0  0  0  0  0  0  0  0
   -0.3200  -19.6950   13.1370 C   0  0  0  0  0  0  0  0  0  0  0  0
   -0.0310  -20.2080   11.8590 C   0  0  0  0  0  0  0  0  0  0  0  0
   -0.2650  -21.5530   11.5520 C   0  0  0  0  0  0  0  0  0  0  0  0
   -0.7720  -22.4130   12.5230 C   0  0  0  0  0  0  0  0  0  0  0  0
   -1.0530  -21.9190   13.7890 C   0  0  0  0  0  0  0  0  0  0  0  0
   -0.8640  -20.5670   14.0910 C   0  0  0  0  0  0  0  0  0  0  0  0
   -1.4960  -22.7930   14.7420 O   0  0  0  0  0  0  0  0  0  0  0  0
   -1.1500  -20.1300   15.3600 O   0  0  0  0  0  0  0  0  0  0  0  0
    0.0060  -20.2600   16.1950 C   0  0  0  0  0  0  0  0  0  0  0  0
  1  3  1  0
  1 15  1  0
  3  2  1  0
  4  5  1  0
  4  1  1  0
  6 11  2  0
  6  5  1  0
  7  6  1  0
  8  9  1  0
  8  7  2  0
  9 10  2  0
 10 13  1  0
 10 11  1  0
 12  9  1  0
 14 13  1  0
 16 15  1  0
 16 21  1  0
 17 16  2  0
 18 17  1  0
 18 19  2  0
 19 20  1  0
 20 21  2  0
 20 22  1  0
 21 23  1  0
 23 24  1  0
M  END
$$$$
