lig_154
     RDKit          3D

 20 22  0  0  1  0  0  0  0  0999 V2000
   22.1770   17.6970    7.0400 C   0  0  0  0  0  0  0  0  0  0  0  0
   21.6940   17.6080    8.3250 C   0  0  0  0  0  0  0  0  0  0  0  0
   21.3160   18.9210    8.6350 C   0  0  0  0  0  0  0  0  0  0  0  0
   21.5410   19.7680    7.6290 N   0  0  0  0  0  0  0  0  0  0  0  0
   22.0860   18.9910    6.6190 O   0  0  0  0  0  0  0  0  0  0  0  0
   22.7420   16.7410    6.0600 C   0  0  0  0  0  0  0  0  0  0  0  0
   22.3400   15.4310    6.4620 O   0  0  0  0  0  0  0  0  0  0  0  0
   25.2170   13.0130    8.2570 C   0  0  0  0  0  0  0  0  0  0  0  0
   24.3240   13.7750    9.0070 C   0  0  0  0  0  0  0  0  0  0  0  0
   23.3770   14.5710    8.3600 C   0  0  0  0  0  0  0  0  0  0  0  0
   23.3140   14.6110    6.9640 C   0  0  0  0  0  0  0  0  0  0  0  0
   24.2100   13.8450    6.2170 C   0  0  0  0  0  0  0  0  0  0  0  0
   25.1600   13.0470    6.8650 C   0  0  0  0  0  0  0  0  0  0  0  0
   20.7860   19.3210    9.8120 O   0  0  0  0  0  0  0  0  0  0  0  0
   19.3600   19.4400    9.8440 C   0  0  0  0  0  0  0  0  0  0  0  0
   18.9010   20.9030    9.9650 C   0  0  2  0  0  0  0  0  0  0  0  0
   18.4370   21.2720   11.3710 C   0  0  0  0  0  0  0  0  0  0  0  0
   17.5100   22.4610   11.1610 C   0  0  0  0  0  0  0  0  0  0  0  0
   17.2420   22.5040    9.6640 C   0  0  0  0  0  0  0  0  0  0  0  0
   17.7210   21.2230    9.1360 N   0  0  0  0  0  0  0  0  0  0  0  0
  1  2  2  0
  2  3  1  0
  3 14  1  0
  4  3  2  0
  5  1  1  0
  5  4  1  0
  6  7  1  0
  6  1  1  0
  7 11  1  0
  8  9  2  0
 10  9  1  0
 11 10  2  0
 12 13  2  0
 12 11  1  0
 13  8  1  0
 14 15  1  0
 16 15  1  1
 16 17  1  0
 18 17  1  0
 19 18  1  0
 20 19  1  0
 20 16  1  0
M  END
$$$$
