lig_491
     RDKit          3D

 31 34  0  0  1  0  0  0  0  0999 V2000
   -2.9670   12.4230   16.2140 C   0  0  0  0  0  0  0  0  0  0  0  0
   -2.3980   11.2000   16.3640 N   0  0  0  0  0  0  0  0  0  0  0  0
   -1.0820   11.0270   16.1680 C   0  0  0  0  0  0  0  0  0  0  0  0
   -0.5030    9.7750   16.3340 N   0  0  0  0  0  0  0  0  0  0  0  0
   -1.1660    8.6020   16.6150 C   0  0  0  0  0  0  0  0  0  0  0  0
   -2.3780    8.4460   16.6910 O   0  0  0  0  0  0  0  0  0  0  0  0
   -0.1920   11.9820   15.8160 N   0  0  0  0  0  0  0  0  0  0  0  0
   -0.7840   13.1790   15.6740 C   0  0  0  0  0  0  0  0  0  0  0  0
   -2.1230   13.4810   15.8370 C   0  0  0  0  0  0  0  0  0  0  0  0
   -2.3590   14.8130   15.5640 N   0  0  0  0  0  0  0  0  0  0  0  0
   -1.1790   15.3120   15.2580 C   0  0  0  0  0  0  0  0  0  0  0  0
   -0.1950   14.3650   15.3230 N   0  0  0  0  0  0  0  0  0  0  0  0
    1.2150   14.5170   15.0250 C   0  0  2  0  0  0  0  0  0  0  0  0
    1.7920   15.5410   15.8720 O   0  0  0  0  0  0  0  0  0  0  0  0
    2.5110   16.4500   15.0080 C   0  0  1  0  0  0  0  0  0  0  0  0
    1.7920   16.3890   13.6670 C   0  0  2  0  0  0  0  0  0  0  0  0
    1.4700   14.9060   13.5620 C   0  0  1  0  0  0  0  0  0  0  0  0
    2.6060   16.8280   12.5870 O   0  0  0  0  0  0  0  0  0  0  0  0
    2.6290   14.2280   13.0330 O   0  0  0  0  0  0  0  0  0  0  0  0
    2.5440   17.8450   15.6260 C   0  0  0  0  0  0  0  0  0  0  0  0
    1.6400   18.7180   14.9490 O   0  0  0  0  0  0  0  0  0  0  0  0
   -4.3320   12.6200   16.4320 N   0  0  0  0  0  0  0  0  0  0  0  0
   -5.4800   10.4690   16.1930 C   0  0  0  0  0  0  0  0  0  0  0  0
   -5.2470   11.8510   15.6030 C   0  0  0  0  0  0  0  0  0  0  0  0
   -0.1880    7.4440   16.7800 C   0  0  0  0  0  0  0  0  0  0  0  0
   -0.7200    6.3030   17.6620 C   0  0  0  0  0  0  0  0  0  0  0  0
    0.4170    5.6250   18.4580 C   0  0  0  0  0  0  0  0  0  0  0  0
    0.1300    4.1650   18.8230 C   0  0  0  0  0  0  0  0  0  0  0  0
   -1.3590    3.8960   18.9700 C   0  0  0  0  0  0  0  0  0  0  0  0
   -2.1150    4.1780   17.6700 C   0  0  0  0  0  0  0  0  0  0  0  0
   -1.4700    5.2690   16.8110 C   0  0  0  0  0  0  0  0  0  0  0  0
  1  2  1  0
  1 22  1  0
  3  4  1  0
  3  2  2  0
  4  5  1  0
  5  6  2  0
  5 25  1  0
  7  3  1  0
  8  7  2  0
  8  9  1  0
  9  1  2  0
 10  9  1  0
 11 12  1  0
 11 10  2  0
 12  8  1  0
 13 12  1  6
 13 14  1  0
 15 20  1  1
 15 14  1  0
 16 18  1  6
 16 15  1  0
 17 19  1  1
 17 16  1  0
 17 13  1  0
 21 20  1  0
 24 23  1  0
 24 22  1  0
 25 26  1  0
 26 27  1  0
 27 28  1  0
 28 29  1  0
 30 29  1  0
 31 26  1  0
 31 30  1  0
M  END
$$$$
