lig_256
     RDKit          3D

 25 27  0  0  0  0  0  0  0  0999 V2000
   -4.3490    9.5380   15.6860 C   0  0  0  0  0  0  0  0  0  0  0  0
   -5.3120   10.2830   15.5440 O   0  0  0  0  0  0  0  0  0  0  0  0
   -3.0130    9.8820   15.5350 N   0  0  0  0  0  0  0  0  0  0  0  0
   -2.4900   11.1200   15.2520 C   0  0  0  0  0  0  0  0  0  0  0  0
   -3.2140   12.1700   15.1310 N   0  0  0  0  0  0  0  0  0  0  0  0
   -2.6660   13.4200   14.8380 C   0  0  0  0  0  0  0  0  0  0  0  0
   -3.5590   14.4450   14.5020 C   0  0  0  0  0  0  0  0  0  0  0  0
   -3.1070   15.7390   14.2340 C   0  0  0  0  0  0  0  0  0  0  0  0
   -1.7470   16.0290   14.3110 C   0  0  0  0  0  0  0  0  0  0  0  0
   -0.8460   15.0200   14.6500 C   0  0  0  0  0  0  0  0  0  0  0  0
   -1.3080   13.7180   14.9040 C   0  0  0  0  0  0  0  0  0  0  0  0
   -0.3380   12.6740   15.2560 C   0  0  0  0  0  0  0  0  0  0  0  0
    0.7960   12.9740   15.6130 O   0  0  0  0  0  0  0  0  0  0  0  0
   -0.7750   10.9950   15.0840 S   0  0  0  0  0  0  0  0  0  0  0  0
   -4.5310    8.0610   16.0310 C   0  0  0  0  0  0  0  0  0  0  0  0
   -3.0670    6.1080   16.7540 C   0  0  0  0  0  0  0  0  0  0  0  0
   -3.3670    7.4180   16.7380 C   0  0  0  0  0  0  0  0  0  0  0  0
   -0.8910    3.7940   18.8310 C   0  0  0  0  0  0  0  0  0  0  0  0
    0.2750    4.5580   18.9110 C   0  0  0  0  0  0  0  0  0  0  0  0
    0.3480    5.8060   18.2940 C   0  0  0  0  0  0  0  0  0  0  0  0
   -0.7500    6.2960   17.5870 C   0  0  0  0  0  0  0  0  0  0  0  0
   -1.9230    5.5380   17.4830 C   0  0  0  0  0  0  0  0  0  0  0  0
   -1.9900    4.2900   18.1220 C   0  0  0  0  0  0  0  0  0  0  0  0
    0.3580    1.8320   19.3360 C   0  0  0  0  0  0  0  0  0  0  0  0
   -0.8320    2.5960   19.4890 O   0  0  0  0  0  0  0  0  0  0  0  0
  1 15  1  0
  2  1  2  0
  3  1  1  0
  4  3  1  0
  5  4  2  0
  6 11  1  0
  6  5  1  0
  7  6  2  0
  8  9  2  0
  8  7  1  0
  9 10  1  0
 10 11  2  0
 11 12  1  0
 12 13  2  0
 14  4  1  0
 14 12  1  0
 15 17  1  0
 16 22  1  0
 17 16  2  0
 18 19  2  0
 18 25  1  0
 20 19  1  0
 21 20  2  0
 22 21  1  0
 22 23  2  0
 23 18  1  0
 24 25  1  0
M  END
$$$$
