lig_060
     RDKit          3D

 33 38  0  0  1  0  0  0  0  0999 V2000
    1.5060    8.4850   18.0960 N   0  0  0  0  0  0  0  0  0  0  0  0
    0.4610    7.6220   17.8830 C   0  0  0  0  0  0  0  0  0  0  0  0
    0.5210    6.3780   18.2790 N   0  0  0  0  0  0  0  0  0  0  0  0
   -0.5840    5.5140   18.0350 C   0  0  0  0  0  0  0  0  0  0  0  0
   -0.5460    4.1860   18.4240 C   0  0  0  0  0  0  0  0  0  0  0  0
   -1.6060    3.3320   18.1960 C   0  0  0  0  0  0  0  0  0  0  0  0
   -2.7650    3.7460   17.5680 C   0  0  0  0  0  0  0  0  0  0  0  0
   -2.8460    5.0790   17.1600 C   0  0  0  0  0  0  0  0  0  0  0  0
   -1.7680    5.9520   17.3920 C   0  0  0  0  0  0  0  0  0  0  0  0
   -1.7990    7.3430   16.9930 C   0  0  0  0  0  0  0  0  0  0  0  0
   -2.7200    8.0810   16.4150 N   0  0  0  0  0  0  0  0  0  0  0  0
   -2.1120    9.3130   16.3250 C   0  0  0  0  0  0  0  0  0  0  0  0
   -0.8830    9.3920   16.8620 N   0  0  0  0  0  0  0  0  0  0  0  0
   -0.6970    8.1060   17.2460 N   0  0  0  0  0  0  0  0  0  0  0  0
   -1.3700    2.0730   18.6530 O   0  0  0  0  0  0  0  0  0  0  0  0
   -0.0500    2.2440   19.1880 C   0  0  0  0  0  0  0  0  0  0  0  0
    0.7810    1.3720   18.5660 F   0  0  0  0  0  0  0  0  0  0  0  0
   -0.0770    1.9160   20.5040 F   0  0  0  0  0  0  0  0  0  0  0  0
    0.4890    3.5610   19.0570 O   0  0  0  0  0  0  0  0  0  0  0  0
   -2.7910   10.4830   15.7050 C   0  0  0  0  0  0  0  0  0  0  0  0
   -1.8600   11.7080   15.5070 C   0  0  2  0  0  0  0  0  0  0  0  0
   -2.5140   12.9530   16.0110 N   0  0  0  0  0  0  0  0  0  0  0  0
   -1.8730   13.5320   17.2190 C   0  0  0  0  0  0  0  0  0  0  0  0
   -2.0610   15.0070   17.0970 C   0  0  0  0  0  0  0  0  0  0  0  0
   -1.8630   16.0200   18.0130 C   0  0  0  0  0  0  0  0  0  0  0  0
   -2.0920   17.3270   17.5840 C   0  0  0  0  0  0  0  0  0  0  0  0
   -2.4950   17.5460   16.2650 C   0  0  0  0  0  0  0  0  0  0  0  0
   -2.6830   16.5650   15.3510 N   0  0  0  0  0  0  0  0  0  0  0  0
   -2.4650   15.3210   15.8110 C   0  0  0  0  0  0  0  0  0  0  0  0
   -2.5720   14.0530   15.0090 C   0  0  0  0  0  0  0  0  0  0  0  0
   -1.4510   11.7930   14.0120 C   0  0  0  0  0  0  0  0  0  0  0  0
   -1.4220   10.5610   13.4460 F   0  0  0  0  0  0  0  0  0  0  0  0
   -0.2060   12.3180   13.8790 F   0  0  0  0  0  0  0  0  0  0  0  0
  2  1  1  0
  2  3  2  0
  4  3  1  0
  4  5  1  0
  5 19  1  0
  6  5  2  0
  6 15  1  0
  7  6  1  0
  8  9  1  0
  8  7  2  0
  9  4  2  0
 10 14  1  0
 10  9  1  0
 11 10  2  0
 12 11  1  0
 12 13  2  0
 13 14  1  0
 14  2  1  0
 15 16  1  0
 16 18  1  0
 17 16  1  0
 19 16  1  0
 20 12  1  0
 21 20  1  6
 21 22  1  0
 22 23  1  0
 24 23  1  0
 24 25  2  0
 26 25  1  0
 27 26  2  0
 28 29  2  0
 28 27  1  0
 29 24  1  0
 30 29  1  0
 30 22  1  0
 31 21  1  0
 32 31  1  0
 33 31  1  0
M  END
$$$$
