lig_188
     RDKit          3D

 36 39  0  0  0  0  0  0  0  0999 V2000
   -4.5270   16.8400   13.6390 N   0  0  0  0  0  0  0  0  0  0  0  0
   -4.4170   15.4810   13.3770 C   0  0  0  0  0  0  0  0  0  0  0  0
   -5.0270   14.8870   12.4930 O   0  0  0  0  0  0  0  0  0  0  0  0
   -3.5160   14.8090   14.2490 C   0  0  0  0  0  0  0  0  0  0  0  0
   -3.2240   13.4770   14.2150 N   0  0  0  0  0  0  0  0  0  0  0  0
   -2.3180   13.1710   15.2050 C   0  0  0  0  0  0  0  0  0  0  0  0
   -2.0450   14.3600   15.8760 C   0  0  0  0  0  0  0  0  0  0  0  0
   -1.0000   14.4840   17.2190 Cl  0  0  0  0  0  0  0  0  0  0  0  0
   -2.8030   15.4030   15.2570 C   0  0  0  0  0  0  0  0  0  0  0  0
   -2.9510   16.7790   15.4630 N   0  0  0  0  0  0  0  0  0  0  0  0
   -3.8310   17.5220   14.6490 C   0  0  0  0  0  0  0  0  0  0  0  0
   -3.9880   18.7360   14.8140 O   0  0  0  0  0  0  0  0  0  0  0  0
   -1.8230   11.8090   15.3900 C   0  0  0  0  0  0  0  0  0  0  0  0
   -1.5350   11.0010   14.2840 C   0  0  0  0  0  0  0  0  0  0  0  0
   -1.0500    9.6970   14.4540 C   0  0  0  0  0  0  0  0  0  0  0  0
   -0.8470    9.1880   15.7370 C   0  0  0  0  0  0  0  0  0  0  0  0
   -1.1320    9.9930   16.8420 C   0  0  0  0  0  0  0  0  0  0  0  0
   -1.6160   11.2930   16.6720 C   0  0  0  0  0  0  0  0  0  0  0  0
   -0.3820    7.9400   16.0440 O   0  0  0  0  0  0  0  0  0  0  0  0
   -0.5050    7.5210   17.4020 C   0  0  0  0  0  0  0  0  0  0  0  0
   -1.3700    6.2630   17.5270 C   0  0  0  0  0  0  0  0  0  0  0  0
   -1.0030    5.3240   18.2270 O   0  0  0  0  0  0  0  0  0  0  0  0
   -2.5350    6.3360   16.7860 N   0  0  0  0  0  0  0  0  0  0  0  0
   -3.5540    5.3730   16.6640 C   0  0  0  0  0  0  0  0  0  0  0  0
   -3.3710    4.1110   16.1020 C   0  0  0  0  0  0  0  0  0  0  0  0
   -4.4380    3.2090   16.0190 C   0  0  0  0  0  0  0  0  0  0  0  0
   -5.7030    3.5540   16.5040 C   0  0  0  0  0  0  0  0  0  0  0  0
   -6.8520    2.5980   16.3810 C   0  0  0  0  0  0  0  0  0  0  0  0
   -5.8920    4.8250   17.0530 C   0  0  0  0  0  0  0  0  0  0  0  0
   -4.8240    5.7240   17.1360 C   0  0  0  0  0  0  0  0  0  0  0  0
   -5.4400   17.6200   12.8080 C   0  0  0  0  0  0  0  0  0  0  0  0
   -7.8930   17.2540   12.2010 C   0  0  0  0  0  0  0  0  0  0  0  0
   -6.8910   17.5770   13.3010 C   0  0  0  0  0  0  0  0  0  0  0  0
   -2.2240   17.5380   16.4810 C   0  0  0  0  0  0  0  0  0  0  0  0
   -0.8080   17.9440   16.0500 C   0  0  0  0  0  0  0  0  0  0  0  0
   -0.5290   19.4340   16.1630 C   0  0  0  0  0  0  0  0  0  0  0  0
  1 11  1  0
  2  1  1  0
  2  4  1  0
  3  2  2  0
  4  9  2  0
  5  4  1  0
  5  6  1  0
  6 13  1  0
  6  7  2  0
  7  8  1  0
  9 10  1  0
  9  7  1  0
 10 34  1  0
 11 12  2  0
 11 10  1  0
 13 18  2  0
 14 15  2  0
 14 13  1  0
 15 16  1  0
 16 19  1  0
 16 17  2  0
 18 17  1  0
 19 20  1  0
 20 21  1  0
 21 22  2  0
 23 21  1  0
 24 23  1  0
 24 30  2  0
 25 24  1  0
 26 25  2  0
 26 27  1  0
 27 29  2  0
 28 27  1  0
 29 30  1  0
 31 33  1  0
 31  1  1  0
 32 33  1  0
 35 36  1  0
 35 34  1  0
M  END
$$$$
