lig_130
     RDKit          3D

 27 30  0  0  1  0  0  0  0  0999 V2000
   -0.3480  -19.5420   12.0570 C   0  0  0  0  0  0  0  0  0  0  0  0
   -0.1230  -22.4840   13.8980 C   0  0  0  0  0  0  0  0  0  0  0  0
    1.0370  -21.7980   13.9040 C   0  0  0  0  0  0  0  0  0  0  0  0
    1.5240  -20.9770   12.7400 C   0  0  0  0  0  0  0  0  0  0  0  0
    0.5140  -20.6850   11.7090 N   0  0  0  0  0  0  0  0  0  0  0  0
   -0.2750  -21.9010   11.4390 C   0  0  0  0  0  0  0  0  0  0  0  0
   -1.0080  -22.4590   12.6730 C   0  0  0  0  0  0  0  0  0  0  0  0
   -1.4350  -24.7500   17.2860 C   0  0  0  0  0  0  0  0  0  0  0  0
   -0.9260  -23.4690   17.4700 C   0  0  0  0  0  0  0  0  0  0  0  0
   -0.4950  -22.7340   16.3620 C   0  0  0  0  0  0  0  0  0  0  0  0
   -0.5640  -23.2710   15.0670 C   0  0  0  0  0  0  0  0  0  0  0  0
   -1.0890  -24.5640   14.9090 C   0  0  0  0  0  0  0  0  0  0  0  0
   -1.5200  -25.3010   16.0150 C   0  0  0  0  0  0  0  0  0  0  0  0
   -1.8670  -25.5030   18.3370 O   0  0  0  0  0  0  0  0  0  0  0  0
    0.4370  -18.2410   12.3420 C   0  0  2  0  0  0  0  0  0  0  0  0
    0.4110  -17.9280   13.8460 C   0  0  0  0  0  0  0  0  0  0  0  0
    1.2420  -16.6850   14.1670 C   0  0  0  0  0  0  0  0  0  0  0  0
    1.0260  -15.5610   13.1980 C   0  0  0  0  0  0  0  0  0  0  0  0
    0.3910  -15.7080   12.0210 C   0  0  0  0  0  0  0  0  0  0  0  0
   -0.1280  -17.0470   11.5430 C   0  0  0  0  0  0  0  0  0  0  0  0
    0.2050  -14.5430   11.1350 C   0  0  0  0  0  0  0  0  0  0  0  0
   -0.7090  -13.5330   11.4720 C   0  0  0  0  0  0  0  0  0  0  0  0
   -0.8950  -12.4280   10.6350 C   0  0  0  0  0  0  0  0  0  0  0  0
   -0.1640  -12.3330    9.4570 C   0  0  0  0  0  0  0  0  0  0  0  0
    0.7470  -13.3210    9.1050 C   0  0  0  0  0  0  0  0  0  0  0  0
    0.9310  -14.4250    9.9420 C   0  0  0  0  0  0  0  0  0  0  0  0
   -0.3120  -11.2740    8.6120 O   0  0  0  0  0  0  0  0  0  0  0  0
  2  3  2  0
  2 11  1  0
  4  3  1  0
  5  1  1  0
  5  4  1  0
  6  5  1  0
  6  7  1  0
  7  2  1  0
  8  9  1  0
  8 14  1  0
 10  9  2  0
 11 10  1  0
 12 11  2  0
 12 13  1  0
 13  8  2  0
 15  1  1  1
 15 16  1  0
 16 17  1  0
 18 17  1  0
 19 18  2  0
 20 19  1  0
 20 15  1  0
 21 22  1  0
 21 19  1  0
 23 22  2  0
 24 23  1  0
 25 24  2  0
 25 26  1  0
 26 21  2  0
 27 24  1  0
M  END
$$$$
