lig_080
     RDKit          3D

 35 38  0  0  1  0  0  0  0  0999 V2000
    1.1530  -20.4470   11.9510 C   0  0  0  0  0  0  0  0  0  0  0  0
   -0.3350  -20.8390   12.0110 C   0  0  0  0  0  0  0  0  0  0  0  0
   -4.0990  -23.9640   17.5860 C   0  0  0  0  0  0  0  0  0  0  0  0
   -4.0190  -22.7440   18.2540 C   0  0  0  0  0  0  0  0  0  0  0  0
   -3.2370  -21.7100   17.7310 C   0  0  0  0  0  0  0  0  0  0  0  0
   -2.5300  -21.8900   16.5420 C   0  0  0  0  0  0  0  0  0  0  0  0
   -2.6190  -23.1000   15.8470 C   0  0  0  0  0  0  0  0  0  0  0  0
   -3.3950  -24.1370   16.3890 C   0  0  0  0  0  0  0  0  0  0  0  0
   -1.8370  -23.2880   14.5730 C   0  0  1  0  0  0  0  0  0  0  0  0
   -2.5400  -24.1430   13.6560 O   0  0  0  0  0  0  0  0  0  0  0  0
   -1.7310  -24.3670   12.4950 C   0  0  0  0  0  0  0  0  0  0  0  0
   -1.4090  -23.0440   11.7810 C   0  0  0  0  0  0  0  0  0  0  0  0
   -0.7490  -22.0770   12.6790 N   0  0  0  0  0  0  0  0  0  0  0  0
   -1.5570  -21.9100   13.9170 C   0  0  2  0  0  0  0  0  0  0  0  0
   -0.9020  -21.0690   15.0240 C   0  0  0  0  0  0  0  0  0  0  0  0
   -1.7970  -20.8150   16.1160 O   0  0  0  0  0  0  0  0  0  0  0  0
   -4.1130  -26.0530   18.7210 C   0  0  0  0  0  0  0  0  0  0  0  0
   -4.8160  -25.0570   17.9890 O   0  0  0  0  0  0  0  0  0  0  0  0
    1.6110  -19.2600   12.8020 C   0  0  0  0  0  0  0  0  0  0  0  0
    0.5070  -18.2750   13.1850 C   0  0  0  0  0  0  0  0  0  0  0  0
    0.3120  -17.2320   12.1960 N   0  0  0  0  0  0  0  0  0  0  0  0
    0.2280  -15.9040   12.5630 C   0  0  0  0  0  0  0  0  0  0  0  0
    0.2710  -15.5140   13.7230 O   0  0  0  0  0  0  0  0  0  0  0  0
    0.1240  -14.9210   11.4510 C   0  0  0  0  0  0  0  0  0  0  0  0
   -0.6490  -13.7580   11.5710 C   0  0  0  0  0  0  0  0  0  0  0  0
   -0.7300  -12.8640   10.5020 C   0  0  0  0  0  0  0  0  0  0  0  0
   -0.0430  -13.1580    9.3100 C   0  0  0  0  0  0  0  0  0  0  0  0
    0.7710  -14.2990    9.1980 C   0  0  0  0  0  0  0  0  0  0  0  0
    0.8440  -15.1810   10.2760 C   0  0  0  0  0  0  0  0  0  0  0  0
   -1.4700  -11.7100   10.5130 O   0  0  0  0  0  0  0  0  0  0  0  0
   -1.1650  -10.7610   11.5270 C   0  0  0  0  0  0  0  0  0  0  0  0
   -0.0950  -12.2570    8.2700 O   0  0  0  0  0  0  0  0  0  0  0  0
    0.9730  -11.3190    8.3880 C   0  0  0  0  0  0  0  0  0  0  0  0
    1.4250  -14.4670    8.0050 O   0  0  0  0  0  0  0  0  0  0  0  0
    1.0690  -15.5990    7.2220 C   0  0  0  0  0  0  0  0  0  0  0  0
  1  2  1  0
  1 19  1  0
  2 13  1  0
  3 18  1  0
  3  4  1  0
  5  4  2  0
  6  5  1  0
  7  8  1  0
  7  6  2  0
  8  3  2  0
  9 10  1  6
  9  7  1  0
 11 10  1  0
 12 11  1  0
 12 13  1  0
 13 14  1  0
 14  9  1  0
 14 15  1  1
 15 16  1  0
 16  6  1  0
 18 17  1  0
 19 20  1  0
 21 22  1  0
 21 20  1  0
 22 23  2  0
 24 25  2  0
 24 22  1  0
 26 30  1  0
 26 25  1  0
 27 26  2  0
 28 27  1  0
 28 29  2  0
 29 24  1  0
 30 31  1  0
 32 33  1  0
 32 27  1  0
 34 28  1  0
 35 34  1  0
M  END
$$$$
