lig_079
     RDKit          3D

 31 34  0  0  0  0  0  0  0  0999 V2000
   24.3200   14.1360    6.1880 C   0  0  0  0  0  0  0  0  0  0  0  0
   23.5510   15.2320    6.8790 C   0  0  0  0  0  0  0  0  0  0  0  0
   23.1890   16.3740    6.1490 C   0  0  0  0  0  0  0  0  0  0  0  0
   22.4790   17.3850    6.7820 C   0  0  0  0  0  0  0  0  0  0  0  0
   22.1150   17.2890    8.1230 C   0  0  0  0  0  0  0  0  0  0  0  0
   22.4600   16.1700    8.8620 C   0  0  0  0  0  0  0  0  0  0  0  0
   23.1830   15.1240    8.2480 C   0  0  0  0  0  0  0  0  0  0  0  0
   21.4070   18.4440    8.5220 N   0  0  0  0  0  0  0  0  0  0  0  0
   20.8760   18.6620    9.7910 C   0  0  0  0  0  0  0  0  0  0  0  0
   20.9450   17.8400   10.7010 O   0  0  0  0  0  0  0  0  0  0  0  0
   20.2550   19.8920    9.9340 N   0  0  0  0  0  0  0  0  0  0  0  0
   21.3330   19.3530    7.3630 C   0  0  0  0  0  0  0  0  0  0  0  0
   21.9980   18.6590    6.1710 C   0  0  0  0  0  0  0  0  0  0  0  0
   19.5920   20.3850   11.0800 C   0  0  0  0  0  0  0  0  0  0  0  0
   18.3080   19.9030   11.3390 C   0  0  0  0  0  0  0  0  0  0  0  0
   17.6030   20.3490   12.4570 C   0  0  0  0  0  0  0  0  0  0  0  0
   18.1970   21.2810   13.3040 C   0  0  0  0  0  0  0  0  0  0  0  0
   19.4450   21.7570   13.0810 N   0  0  0  0  0  0  0  0  0  0  0  0
   20.1100   21.3070   11.9830 C   0  0  0  0  0  0  0  0  0  0  0  0
   17.4640   21.7720   14.5350 C   0  0  0  0  0  0  0  0  0  0  0  0
   16.6150   22.8630   14.1670 O   0  0  0  0  0  0  0  0  0  0  0  0
   15.3190   22.7050   14.6120 C   0  0  0  0  0  0  0  0  0  0  0  0
   14.3680   22.4170   13.6460 C   0  0  0  0  0  0  0  0  0  0  0  0
   13.0490   22.2360   14.0500 C   0  0  0  0  0  0  0  0  0  0  0  0
   12.7330   22.3450   15.4000 C   0  0  0  0  0  0  0  0  0  0  0  0
   13.7540   22.6290   16.2920 C   0  0  0  0  0  0  0  0  0  0  0  0
   15.0430   22.8070   15.9300 N   0  0  0  0  0  0  0  0  0  0  0  0
   23.5540   13.9060    9.0690 C   0  0  0  0  0  0  0  0  0  0  0  0
   22.8380   13.8170   10.2250 F   0  0  0  0  0  0  0  0  0  0  0  0
   23.3300   12.7380    8.4030 F   0  0  0  0  0  0  0  0  0  0  0  0
   24.8630   13.8670    9.4450 F   0  0  0  0  0  0  0  0  0  0  0  0
  1  2  1  0
  2  7  2  0
  3  4  2  0
  3  2  1  0
  4  5  1  0
  5  8  1  0
  5  6  2  0
  7  6  1  0
  7 28  1  0
  8  9  1  0
  9 11  1  0
  9 10  2  0
 11 14  1  0
 12  8  1  0
 13  4  1  0
 13 12  2  0
 14 15  1  0
 14 19  2  0
 15 16  2  0
 16 17  1  0
 17 20  1  0
 18 17  2  0
 19 18  1  0
 21 20  1  0
 21 22  1  0
 22 27  1  0
 23 24  1  0
 23 22  2  0
 24 25  2  0
 25 26  1  0
 27 26  2  0
 28 31  1  0
 28 29  1  0
 30 28  1  0
M  END
$$$$
