lig_084
     RDKit          3D

 25 27  0  0  0  0  0  0  0  0999 V2000
  -31.3730   10.2740    7.6850 C   0  0  0  0  0  0  0  0  0  0  0  0
  -27.1820    8.2250    7.1220 C   0  0  0  0  0  0  0  0  0  0  0  0
  -26.2970    9.0140    6.3900 C   0  0  0  0  0  0  0  0  0  0  0  0
  -26.6770   10.2730    5.9080 C   0  0  0  0  0  0  0  0  0  0  0  0
  -27.9790   10.7220    6.1810 C   0  0  0  0  0  0  0  0  0  0  0  0
  -28.8890    9.9540    6.9090 C   0  0  0  0  0  0  0  0  0  0  0  0
  -28.4760    8.6920    7.3840 C   0  0  0  0  0  0  0  0  0  0  0  0
  -30.1100   10.6980    6.9980 C   0  0  0  0  0  0  0  0  0  0  0  0
  -29.8990   11.8910    6.3330 C   0  0  0  0  0  0  0  0  0  0  0  0
  -28.6220   11.8940    5.8450 N   0  0  0  0  0  0  0  0  0  0  0  0
  -28.0330   12.9750    5.0870 C   0  0  0  0  0  0  0  0  0  0  0  0
  -25.8060    6.2850    7.0910 C   0  0  0  0  0  0  0  0  0  0  0  0
  -26.9140    6.9850    7.6390 O   0  0  0  0  0  0  0  0  0  0  0  0
  -32.0550    9.0570    7.0330 C   0  0  0  0  0  0  0  0  0  0  0  0
  -32.4540    7.9700    7.9380 N   0  0  0  0  0  0  0  0  0  0  0  0
  -31.6470    6.7530    7.8310 C   0  0  0  0  0  0  0  0  0  0  0  0
  -31.5560    5.9210    9.1160 C   0  0  0  0  0  0  0  0  0  0  0  0
  -32.4440    4.6720    9.1350 C   0  0  0  0  0  0  0  0  0  0  0  0
  -33.8510    4.9380    9.6140 C   0  0  0  0  0  0  0  0  0  0  0  0
  -34.9040    5.0670    8.6980 C   0  0  0  0  0  0  0  0  0  0  0  0
  -36.2060    5.3000    9.1470 C   0  0  0  0  0  0  0  0  0  0  0  0
  -36.4600    5.4030   10.5120 C   0  0  0  0  0  0  0  0  0  0  0  0
  -38.0650    5.6880   11.0640 Cl  0  0  0  0  0  0  0  0  0  0  0  0
  -35.4240    5.2730   11.4350 C   0  0  0  0  0  0  0  0  0  0  0  0
  -34.1220    5.0410   10.9860 C   0  0  0  0  0  0  0  0  0  0  0  0
  2  7  2  0
  2 13  1  0
  3  2  1  0
  4  5  1  0
  4  3  2  0
  5  6  2  0
  6  8  1  0
  6  7  1  0
  8  1  1  0
  9  8  2  0
 10  5  1  0
 10  9  1  0
 11 10  1  0
 12 13  1  0
 14  1  1  0
 14 15  1  0
 16 15  1  0
 16 17  1  0
 17 18  1  0
 18 19  1  0
 19 25  2  0
 20 21  2  0
 20 19  1  0
 21 22  1  0
 22 23  1  0
 22 24  2  0
 25 24  1  0
M  END
$$$$
