lig_334
     RDKit          3D

 27 30  0  0  1  0  0  0  0  0999 V2000
   -0.0030   11.1610   15.8790 N   0  0  0  0  0  0  0  0  0  0  0  0
    0.1780   12.4920   15.5570 C   0  0  0  0  0  0  0  0  0  0  0  0
   -0.3870   13.4360   16.3100 N   0  0  0  0  0  0  0  0  0  0  0  0
   -0.1890   14.7410   15.9980 C   0  0  0  0  0  0  0  0  0  0  0  0
    0.5870   15.0710   14.8960 C   0  0  0  0  0  0  0  0  0  0  0  0
    1.0550   16.5840   14.2250 S   0  0  0  0  0  0  0  0  0  0  0  0
    1.9530   15.8440   12.9750 C   0  0  0  0  0  0  0  0  0  0  0  0
    1.9140   14.4730   13.0620 C   0  0  0  0  0  0  0  0  0  0  0  0
    1.1330   14.0200   14.1660 C   0  0  0  0  0  0  0  0  0  0  0  0
    0.9350   12.7220   14.4870 N   0  0  0  0  0  0  0  0  0  0  0  0
   -0.8680   15.7670   16.8330 C   0  0  0  0  0  0  0  0  0  0  0  0
   -2.0580   16.0080   16.6330 O   0  0  0  0  0  0  0  0  0  0  0  0
   -0.1470   16.4370   17.8110 N   0  0  0  0  0  0  0  0  0  0  0  0
    1.2880   16.3670   18.0660 C   0  0  0  0  0  0  0  0  0  0  0  0
    1.5200   17.3080   19.2450 C   0  0  0  0  0  0  0  0  0  0  0  0
    0.4320   18.3570   19.0660 C   0  0  2  0  0  0  0  0  0  0  0  0
   -0.7520   17.5360   18.5480 C   0  0  0  0  0  0  0  0  0  0  0  0
    0.8760   19.3110   18.0990 O   0  0  0  0  0  0  0  0  0  0  0  0
   -2.4500   11.1610   15.5730 C   0  0  0  0  0  0  0  0  0  0  0  0
   -1.2720   10.7770   16.4770 C   0  0  1  0  0  0  0  0  0  0  0  0
   -1.1970    9.2840   16.7740 C   0  0  0  0  0  0  0  0  0  0  0  0
   -2.3230    8.4790   16.5150 C   0  0  0  0  0  0  0  0  0  0  0  0
   -2.3110    7.1080   16.7900 C   0  0  0  0  0  0  0  0  0  0  0  0
   -1.1750    6.5220   17.3410 C   0  0  0  0  0  0  0  0  0  0  0  0
   -0.0670    7.3130   17.6170 C   0  0  0  0  0  0  0  0  0  0  0  0
    1.0230    6.7510   18.1580 F   0  0  0  0  0  0  0  0  0  0  0  0
   -0.0680    8.6780   17.3460 C   0  0  0  0  0  0  0  0  0  0  0  0
  1 20  1  0
  2  1  1  0
  2  3  2  0
  4  3  1  0
  4 11  1  0
  5  4  2  0
  6  5  1  0
  7  8  2  0
  7  6  1  0
  8  9  1  0
  9 10  2  0
  9  5  1  0
 10  2  1  0
 11 13  1  0
 12 11  2  0
 13 14  1  0
 13 17  1  0
 14 15  1  0
 16 18  1  6
 16 15  1  0
 17 16  1  0
 20 19  1  6
 20 21  1  0
 21 27  1  0
 22 21  2  0
 22 23  1  0
 23 24  2  0
 24 25  1  0
 25 26  1  0
 27 25  2  0
M  END
$$$$
