lig_056
     RDKit          3D

 30 34  0  0  1  0  0  0  0  0999 V2000
   -1.7620    5.7780   17.3440 C   0  0  0  0  0  0  0  0  0  0  0  0
   -1.9170    7.0370   16.8470 N   0  0  0  0  0  0  0  0  0  0  0  0
   -0.8930    7.9060   17.1000 C   0  0  0  0  0  0  0  0  0  0  0  0
    0.2570    7.5540   17.8230 C   0  0  0  0  0  0  0  0  0  0  0  0
    0.3870    6.3000   18.3090 N   0  0  0  0  0  0  0  0  0  0  0  0
   -0.6270    5.4120   18.0780 C   0  0  0  0  0  0  0  0  0  0  0  0
   -7.0880    5.5180   18.3200 C   0  0  0  0  0  0  0  0  0  0  0  0
   -6.5210    4.4350   17.4860 C   0  0  0  0  0  0  0  0  0  0  0  0
   -7.1230    3.3440   16.8920 C   0  0  0  0  0  0  0  0  0  0  0  0
   -6.2170    2.5850   16.2010 N   0  0  0  0  0  0  0  0  0  0  0  0
   -5.0620    3.1910   16.3620 C   0  0  0  0  0  0  0  0  0  0  0  0
   -3.7630    2.8720   15.8780 C   0  0  0  0  0  0  0  0  0  0  0  0
   -2.7210    3.6690   16.1820 C   0  0  0  0  0  0  0  0  0  0  0  0
   -2.8760    4.8710   17.0080 C   0  0  0  0  0  0  0  0  0  0  0  0
   -4.1130    5.1700   17.4580 C   0  0  0  0  0  0  0  0  0  0  0  0
   -5.1870    4.3370   17.1420 N   0  0  0  0  0  0  0  0  0  0  0  0
   -0.4480    4.0880   18.6760 C   0  0  0  0  0  0  0  0  0  0  0  0
   -1.3320    3.2720   19.2260 N   0  0  0  0  0  0  0  0  0  0  0  0
   -0.5960    2.1830   19.6150 C   0  0  0  0  0  0  0  0  0  0  0  0
    0.7210    2.3720   19.2880 C   0  0  0  0  0  0  0  0  0  0  0  0
    0.8330    3.5860   18.6830 O   0  0  0  0  0  0  0  0  0  0  0  0
   -1.0780    9.2870   16.5480 C   0  0  0  0  0  0  0  0  0  0  0  0
   -0.1540   10.0900   16.4960 O   0  0  0  0  0  0  0  0  0  0  0  0
   -2.3650    9.5590   16.1210 N   0  0  0  0  0  0  0  0  0  0  0  0
   -2.6720   10.7120   15.3030 C   0  0  0  0  0  0  0  0  0  0  0  0
   -3.4270   11.7130   16.1770 C   0  0  1  0  0  0  0  0  0  0  0  0
   -2.5580   12.6600   17.0140 C   0  0  0  0  0  0  0  0  0  0  0  0
   -3.0260   13.7380   16.0420 C   0  0  0  0  0  0  0  0  0  0  0  0
   -3.9620   12.8320   15.4150 O   0  0  0  0  0  0  0  0  0  0  0  0
    1.3490    8.4090   18.0350 N   0  0  0  0  0  0  0  0  0  0  0  0
  1  6  2  0
  2  3  2  0
  2  1  1  0
  3  4  1  0
  4 30  1  0
  4  5  2  0
  6  5  1  0
  6 17  1  0
  8  7  1  0
  9  8  2  0
 10 11  2  0
 10  9  1  0
 11 16  1  0
 12 13  2  0
 12 11  1  0
 13 14  1  0
 14  1  1  0
 14 15  2  0
 16 15  1  0
 16  8  1  0
 17 21  1  0
 17 18  2  0
 18 19  1  0
 20 19  2  0
 21 20  1  0
 22  3  1  0
 23 22  2  0
 24 22  1  0
 25 24  1  0
 26 25  1  6
 26 27  1  0
 28 27  1  0
 29 28  1  0
 29 26  1  0
M  END
$$$$
