lig_417
     RDKit          3D

 21 22  0  0  0  0  0  0  0  0999 V2000
    0.4590  -18.2620   13.5250 N   0  0  0  0  0  0  0  0  0  0  0  0
    1.9650  -16.3380   14.0550 C   0  0  0  0  0  0  0  0  0  0  0  0
    0.5680  -16.8030   13.6530 C   0  0  0  0  0  0  0  0  0  0  0  0
    0.5760  -18.7730   12.1520 C   0  0  0  0  0  0  0  0  0  0  0  0
    0.9460  -20.2460   11.9160 C   0  0  0  0  0  0  0  0  0  0  0  0
   -0.2490  -21.1890   11.7790 C   0  0  0  0  0  0  0  0  0  0  0  0
   -0.1520  -22.3500   12.7410 C   0  0  0  0  0  0  0  0  0  0  0  0
   -1.1680  -23.3140   12.7940 C   0  0  0  0  0  0  0  0  0  0  0  0
   -1.0700  -24.3960   13.6720 C   0  0  0  0  0  0  0  0  0  0  0  0
    0.0450  -24.5250   14.4980 C   0  0  0  0  0  0  0  0  0  0  0  0
    1.0630  -23.5750   14.4480 C   0  0  0  0  0  0  0  0  0  0  0  0
    0.9670  -22.4930   13.5710 C   0  0  0  0  0  0  0  0  0  0  0  0
    1.3010  -18.9790   14.4900 C   0  0  0  0  0  0  0  0  0  0  0  0
    0.5420  -19.4240   15.7490 C   0  0  0  0  0  0  0  0  0  0  0  0
   -0.8850  -19.8920   15.4440 C   0  0  0  0  0  0  0  0  0  0  0  0
   -1.2190  -21.1640   16.1840 C   0  0  0  0  0  0  0  0  0  0  0  0
   -0.3390  -21.6810   17.1460 C   0  0  0  0  0  0  0  0  0  0  0  0
   -0.6580  -22.8490   17.8400 C   0  0  0  0  0  0  0  0  0  0  0  0
   -1.8600  -23.5070   17.5850 C   0  0  0  0  0  0  0  0  0  0  0  0
   -2.7440  -22.9970   16.6350 C   0  0  0  0  0  0  0  0  0  0  0  0
   -2.4260  -21.8310   15.9390 C   0  0  0  0  0  0  0  0  0  0  0  0
  1  3  1  0
  1 13  1  0
  3  2  1  0
  4  1  1  0
  5  4  1  0
  6  5  1  0
  6  7  1  0
  7  8  2  0
  7 12  1  0
  8  9  1  0
  9 10  2  0
 11 10  1  0
 12 11  2  0
 13 14  1  0
 15 14  1  0
 15 16  1  0
 16 17  2  0
 17 18  1  0
 19 18  2  0
 20 19  1  0
 21 16  1  0
 21 20  2  0
M  END
$$$$
