lig_288
     RDKit          3D

 33 37  0  0  0  0  0  0  0  0999 V2000
   -1.6840  -24.2670   14.5380 N   0  0  0  0  0  0  0  0  0  0  0  0
   -0.2500  -24.0000   14.7370 C   0  0  0  0  0  0  0  0  0  0  0  0
    0.1010  -22.7140   15.4980 C   0  0  0  0  0  0  0  0  0  0  0  0
    0.1000  -21.4420   14.6740 C   0  0  0  0  0  0  0  0  0  0  0  0
    0.9990  -20.4300   15.0570 C   0  0  0  0  0  0  0  0  0  0  0  0
    1.0800  -19.2220   14.3620 C   0  0  0  0  0  0  0  0  0  0  0  0
    0.2780  -18.9910   13.2450 C   0  0  0  0  0  0  0  0  0  0  0  0
   -0.6310  -19.9900   12.8680 C   0  0  0  0  0  0  0  0  0  0  0  0
   -0.7540  -21.2040   13.5840 C   0  0  0  0  0  0  0  0  0  0  0  0
   -1.7870  -22.1960   13.0850 C   0  0  0  0  0  0  0  0  0  0  0  0
   -2.4470  -23.0610   14.1680 C   0  0  0  0  0  0  0  0  0  0  0  0
    0.4190  -17.7810   12.5130 N   0  0  0  0  0  0  0  0  0  0  0  0
   -0.2710  -17.5920   11.2490 C   0  0  0  0  0  0  0  0  0  0  0  0
    1.2440  -16.7720   12.9920 C   0  0  0  0  0  0  0  0  0  0  0  0
    1.4600  -15.7170   12.3950 O   0  0  0  0  0  0  0  0  0  0  0  0
    1.8110  -17.0170   14.3860 C   0  0  0  0  0  0  0  0  0  0  0  0
    2.0270  -18.3460   14.8180 O   0  0  0  0  0  0  0  0  0  0  0  0
   -2.3210  -24.9280   15.6910 C   0  0  0  0  0  0  0  0  0  0  0  0
   -3.5680  -24.2040   16.2190 C   0  0  0  0  0  0  0  0  0  0  0  0
   -3.4560  -23.8800   17.7090 C   0  0  0  0  0  0  0  0  0  0  0  0
   -4.7080  -22.6600   18.2240 S   0  0  0  0  0  0  0  0  0  0  0  0
   -3.3940  -19.0420   17.9860 C   0  0  0  0  0  0  0  0  0  0  0  0
   -2.3480  -19.6880   17.5130 N   0  0  0  0  0  0  0  0  0  0  0  0
   -2.6370  -21.0320   17.5240 N   0  0  0  0  0  0  0  0  0  0  0  0
   -3.8600  -21.1730   17.9800 C   0  0  0  0  0  0  0  0  0  0  0  0
   -4.3950  -19.9430   18.2560 N   0  0  0  0  0  0  0  0  0  0  0  0
   -5.7390  -19.6570   18.6850 C   0  0  0  0  0  0  0  0  0  0  0  0
   -3.5250  -17.2930   20.7370 C   0  0  0  0  0  0  0  0  0  0  0  0
   -3.5180  -16.8650   19.3200 C   0  0  0  0  0  0  0  0  0  0  0  0
   -3.5720  -15.5260   19.0030 N   0  0  0  0  0  0  0  0  0  0  0  0
   -3.4920  -15.5170   17.6940 C   0  0  0  0  0  0  0  0  0  0  0  0
   -3.4180  -16.7400   17.1130 O   0  0  0  0  0  0  0  0  0  0  0  0
   -3.4500  -17.6290   18.1620 C   0  0  0  0  0  0  0  0  0  0  0  0
  1  2  1  0
  1 18  1  0
  2  3  1  0
  4  5  2  0
  4  3  1  0
  6 17  1  0
  6  5  1  0
  7  6  2  0
  8  7  1  0
  8  9  2  0
  9  4  1  0
 10  9  1  0
 10 11  1  0
 11  1  1  0
 12 14  1  0
 12  7  1  0
 13 12  1  0
 14 16  1  0
 15 14  2  0
 16 17  1  0
 18 19  1  0
 19 20  1  0
 20 21  1  0
 22 33  1  0
 22 26  1  0
 23 24  1  0
 23 22  2  0
 24 25  2  0
 25 21  1  0
 25 26  1  0
 26 27  1  0
 29 28  1  0
 30 29  1  0
 31 30  2  0
 32 31  1  0
 32 33  1  0
 33 29  2  0
M  END
$$$$
