lig_245
     RDKit          3D

 34 38  0  0  1  0  0  0  0  0999 V2000
   -0.2330  -18.8720   11.9460 N   0  0  0  0  0  0  0  0  0  0  0  0
    0.9270  -18.3640   12.6850 C   0  0  0  0  0  0  0  0  0  0  0  0
    0.4560  -16.9690   13.0780 C   0  0  1  0  0  0  0  0  0  0  0  0
    1.5550  -15.9410   13.2690 C   0  0  0  0  0  0  0  0  0  0  0  0
    1.8480  -15.4530   11.8570 C   0  0  0  0  0  0  0  0  0  0  0  0
    0.5670  -15.5600   11.1330 N   0  0  0  0  0  0  0  0  0  0  0  0
   -0.3410  -16.4820   11.8630 C   0  0  1  0  0  0  0  0  0  0  0  0
   -0.6100  -17.7610   11.0500 C   0  0  0  0  0  0  0  0  0  0  0  0
    0.0240  -14.3210   10.7640 C   0  0  0  0  0  0  0  0  0  0  0  0
   -0.6860  -13.5210   11.6750 C   0  0  0  0  0  0  0  0  0  0  0  0
   -1.2060  -12.2810   11.3010 C   0  0  0  0  0  0  0  0  0  0  0  0
   -1.0210  -11.8140   10.0060 C   0  0  0  0  0  0  0  0  0  0  0  0
   -0.3120  -12.5870    9.0890 C   0  0  0  0  0  0  0  0  0  0  0  0
    0.2190  -13.8410    9.4560 C   0  0  0  0  0  0  0  0  0  0  0  0
    0.9810  -14.6550    8.4380 C   0  0  0  0  0  0  0  0  0  0  0  0
    0.4820  -15.9110    8.2550 F   0  0  0  0  0  0  0  0  0  0  0  0
    2.3050  -14.8020    8.7330 F   0  0  0  0  0  0  0  0  0  0  0  0
    0.9650  -14.0880    7.1900 F   0  0  0  0  0  0  0  0  0  0  0  0
    0.0400  -20.0990   11.1940 C   0  0  0  0  0  0  0  0  0  0  0  0
    0.9510  -21.0830   11.9390 C   0  0  0  0  0  0  0  0  0  0  0  0
    0.2230  -22.1880   12.7120 C   0  0  0  0  0  0  0  0  0  0  0  0
    1.1050  -22.7730   14.1960 S   0  0  0  0  0  0  0  0  0  0  0  0
   -1.2900  -21.6820   16.0850 C   0  0  0  0  0  0  0  0  0  0  0  0
   -1.1040  -23.0810   15.7960 N   0  0  0  0  0  0  0  0  0  0  0  0
   -0.1340  -23.6550   15.0180 C   0  0  0  0  0  0  0  0  0  0  0  0
   -0.2920  -24.9570   15.0020 N   0  0  0  0  0  0  0  0  0  0  0  0
   -1.3840  -25.2530   15.7720 N   0  0  0  0  0  0  0  0  0  0  0  0
   -1.8840  -24.1280   16.2570 C   0  0  0  0  0  0  0  0  0  0  0  0
   -3.0580  -24.0480   17.1260 C   0  0  0  0  0  0  0  0  0  0  0  0
   -2.9860  -24.4170   18.4660 C   0  0  0  0  0  0  0  0  0  0  0  0
   -4.0500  -24.3600   19.3080 N   0  0  0  0  0  0  0  0  0  0  0  0
   -5.1990  -23.9180   18.7550 C   0  0  0  0  0  0  0  0  0  0  0  0
   -5.2810  -23.5480   17.4240 C   0  0  0  0  0  0  0  0  0  0  0  0
   -4.2210  -23.6030   16.5810 N   0  0  0  0  0  0  0  0  0  0  0  0
  1  2  1  0
  3  2  1  6
  3  4  1  0
  5  4  1  0
  6  5  1  0
  6  7  1  0
  7  8  1  6
  7  3  1  0
  8  1  1  0
  9  6  1  0
  9 10  2  0
 11 10  1  0
 12 11  2  0
 13 14  2  0
 13 12  1  0
 14  9  1  0
 15 17  1  0
 15 14  1  0
 16 15  1  0
 18 15  1  0
 19 20  1  0
 19  1  1  0
 20 21  1  0
 21 22  1  0
 22 25  1  0
 24 23  1  0
 24 28  1  0
 25 24  1  0
 26 25  2  0
 26 27  1  0
 27 28  2  0
 28 29  1  0
 29 30  1  0
 30 31  2  0
 32 31  1  0
 33 32  2  0
 34 29  2  0
 34 33  1  0
M  END
$$$$
