lig_365
     RDKit          3D

 25 28  0  0  0  0  0  0  0  0999 V2000
   -6.1340    4.1060   17.3150 N   0  0  0  0  0  0  0  0  0  0  0  0
   -5.2280    5.1000   17.0940 C   0  0  0  0  0  0  0  0  0  0  0  0
   -3.9460    4.7940   17.5050 N   0  0  0  0  0  0  0  0  0  0  0  0
   -2.9910    5.6570   17.3320 C   0  0  0  0  0  0  0  0  0  0  0  0
   -1.6690    5.4720   17.6900 N   0  0  0  0  0  0  0  0  0  0  0  0
   -3.3260    6.8720   16.7430 N   0  0  0  0  0  0  0  0  0  0  0  0
   -2.4730    7.8900   16.5220 N   0  0  0  0  0  0  0  0  0  0  0  0
   -3.3120    8.7840   15.9740 C   0  0  0  0  0  0  0  0  0  0  0  0
   -4.6240    8.3680   15.8640 N   0  0  0  0  0  0  0  0  0  0  0  0
   -4.6020    7.1520   16.3640 C   0  0  0  0  0  0  0  0  0  0  0  0
   -5.5760    6.2310   16.5440 N   0  0  0  0  0  0  0  0  0  0  0  0
   -1.1350    4.4290   18.5460 C   0  0  0  0  0  0  0  0  0  0  0  0
   -1.6350    3.0420   18.1250 C   0  0  0  0  0  0  0  0  0  0  0  0
   -1.0790    1.9530   19.0380 C   0  0  0  0  0  0  0  0  0  0  0  0
    0.4450    2.0090   19.1210 C   0  0  0  0  0  0  0  0  0  0  0  0
    0.9370    3.3900   19.5470 C   0  0  0  0  0  0  0  0  0  0  0  0
    0.3940    4.4870   18.6320 C   0  0  0  0  0  0  0  0  0  0  0  0
   -2.8480   10.1990   15.4980 C   0  0  0  0  0  0  0  0  0  0  0  0
   -1.8810   10.4410   14.5400 C   0  0  0  0  0  0  0  0  0  0  0  0
   -1.7720   11.8470   14.4170 C   0  0  0  0  0  0  0  0  0  0  0  0
   -2.6770   12.3780   15.3050 C   0  0  0  0  0  0  0  0  0  0  0  0
   -3.3340   11.3890   15.9640 O   0  0  0  0  0  0  0  0  0  0  0  0
   -7.9170    5.4830   18.2480 C   0  0  0  0  0  0  0  0  0  0  0  0
   -7.5710    4.3120   17.3340 C   0  0  0  0  0  0  0  0  0  0  0  0
   -8.2440    3.0310   17.8220 C   0  0  0  0  0  0  0  0  0  0  0  0
  1 24  1  0
  2  1  1  0
  2  3  1  0
  4  3  2  0
  4  5  1  0
  5 12  1  0
  6  4  1  0
  7  6  1  0
  8  7  2  0
  9  8  1  0
  9 10  2  0
 10 11  1  0
 10  6  1  0
 11  2  2  0
 12 17  1  0
 13 12  1  0
 13 14  1  0
 14 15  1  0
 15 16  1  0
 17 16  1  0
 18 22  1  0
 18  8  1  0
 19 18  2  0
 20 19  1  0
 20 21  2  0
 21 22  1  0
 24 25  1  0
 24 23  1  0
M  END
$$$$
