lig_346
     RDKit          3D

 23 26  0  0  0  0  0  0  0  0999 V2000
   -1.7140  -24.2610   12.3080 C   0  0  0  0  0  0  0  0  0  0  0  0
   -2.2240  -23.0310   12.9130 N   0  0  0  0  0  0  0  0  0  0  0  0
   -3.2950  -23.2890   13.8880 C   0  0  0  0  0  0  0  0  0  0  0  0
   -3.0420  -24.2220   15.0880 C   0  0  0  0  0  0  0  0  0  0  0  0
   -2.1800  -23.6820   16.2410 C   0  0  0  0  0  0  0  0  0  0  0  0
   -2.6520  -22.4000   16.9010 C   0  0  0  0  0  0  0  0  0  0  0  0
   -4.0000  -22.3260   17.3120 C   0  0  0  0  0  0  0  0  0  0  0  0
   -4.5180  -21.1860   17.9280 C   0  0  0  0  0  0  0  0  0  0  0  0
   -3.6960  -20.0940   18.1610 C   0  0  0  0  0  0  0  0  0  0  0  0
   -2.3540  -20.1530   17.7930 C   0  0  0  0  0  0  0  0  0  0  0  0
   -1.8060  -21.2980   17.1740 C   0  0  0  0  0  0  0  0  0  0  0  0
   -0.3200  -21.2570   16.8610 C   0  0  0  0  0  0  0  0  0  0  0  0
    0.0710  -20.2690   15.7960 C   0  0  0  0  0  0  0  0  0  0  0  0
    1.0970  -19.3790   16.0150 N   0  0  0  0  0  0  0  0  0  0  0  0
    1.3170  -18.6000   14.9070 C   0  0  0  0  0  0  0  0  0  0  0  0
    2.2560  -17.5830   14.6920 C   0  0  0  0  0  0  0  0  0  0  0  0
    2.2530  -16.9490   13.4470 C   0  0  0  0  0  0  0  0  0  0  0  0
    1.3440  -17.3200   12.4590 C   0  0  0  0  0  0  0  0  0  0  0  0
    0.4120  -18.3380   12.6910 C   0  0  0  0  0  0  0  0  0  0  0  0
    0.3940  -18.9940   13.9410 C   0  0  0  0  0  0  0  0  0  0  0  0
   -0.3970  -20.0460   14.5060 C   0  0  0  0  0  0  0  0  0  0  0  0
   -1.5230  -20.7680   13.8200 C   0  0  0  0  0  0  0  0  0  0  0  0
   -1.1170  -22.1820   13.3760 C   0  0  0  0  0  0  0  0  0  0  0  0
  1  2  1  0
  2 23  1  0
  2  3  1  0
  3  4  1  0
  4  5  1  0
  5  6  1  0
  6 11  1  0
  6  7  2  0
  7  8  1  0
  8  9  2  0
 10  9  1  0
 11 10  2  0
 12 11  1  0
 13 14  1  0
 13 12  1  0
 15 14  1  0
 16 15  2  0
 17 16  1  0
 18 19  1  0
 18 17  2  0
 19 20  2  0
 20 21  1  0
 20 15  1  0
 21 13  2  0
 22 21  1  0
 23 22  1  0
M  END
$$$$
