lig_113
     RDKit          3D

 37 41  0  0  1  0  0  0  0  0999 V2000
  -33.2780    4.6610    9.6230 C   0  0  0  0  0  0  0  0  0  0  0  0
  -34.2410    4.8390    8.6840 C   0  0  0  0  0  0  0  0  0  0  0  0
  -35.6950    4.4890    9.0060 C   0  0  0  0  0  0  0  0  0  0  0  0
  -35.8910    4.1370   10.5030 C   0  0  2  0  0  0  0  0  0  0  0  0
  -35.7210    5.3760   11.4010 C   0  0  0  0  0  0  0  0  0  0  0  0
  -34.2370    5.3660   11.8160 C   0  0  0  0  0  0  0  0  0  0  0  0
  -33.6290    4.2000   11.0290 C   0  0  1  0  0  0  0  0  0  0  0  0
  -34.7730    3.3000   10.9140 N   0  0  0  0  0  0  0  0  0  0  0  0
  -34.7470    1.9610   10.6060 C   0  0  0  0  0  0  0  0  0  0  0  0
  -35.7050    1.3840   10.0990 O   0  0  0  0  0  0  0  0  0  0  0  0
  -33.5670    1.3330   10.9000 N   0  0  0  0  0  0  0  0  0  0  0  0
  -33.9970    5.3730    7.3340 C   0  0  0  0  0  0  0  0  0  0  0  0
  -34.3780    4.6430    6.2040 C   0  0  0  0  0  0  0  0  0  0  0  0
  -34.1230    5.1450    4.9280 C   0  0  0  0  0  0  0  0  0  0  0  0
  -33.4910    6.3820    4.7680 C   0  0  0  0  0  0  0  0  0  0  0  0
  -33.1170    7.1260    5.8860 C   0  0  0  0  0  0  0  0  0  0  0  0
  -33.3760    6.6180    7.1630 C   0  0  0  0  0  0  0  0  0  0  0  0
  -32.4860    8.3390    5.8810 O   0  0  0  0  0  0  0  0  0  0  0  0
  -32.0430    8.8920    7.1230 C   0  0  0  0  0  0  0  0  0  0  0  0
  -30.5580    9.1770    7.1590 C   0  0  0  0  0  0  0  0  0  0  0  0
  -30.0630   10.4740    6.9610 C   0  0  0  0  0  0  0  0  0  0  0  0
  -28.6890   10.7190    6.9670 C   0  0  0  0  0  0  0  0  0  0  0  0
  -27.7940    9.6670    7.1600 C   0  0  0  0  0  0  0  0  0  0  0  0
  -28.2730    8.3710    7.3420 C   0  0  0  0  0  0  0  0  0  0  0  0
  -29.6470    8.1260    7.3360 C   0  0  0  0  0  0  0  0  0  0  0  0
  -31.8350    4.9330    9.4370 C   0  0  0  0  0  0  0  0  0  0  0  0
  -31.3530    6.0510    9.5650 O   0  0  0  0  0  0  0  0  0  0  0  0
  -29.7330    3.9470    9.1860 C   0  0  0  0  0  0  0  0  0  0  0  0
  -31.1500    3.7910    9.1990 O   0  0  0  0  0  0  0  0  0  0  0  0
  -33.4050   -0.0870   10.6760 C   0  0  0  0  0  0  0  0  0  0  0  0
  -31.9930   -0.5250   10.9690 C   0  0  0  0  0  0  0  0  0  0  0  0
  -31.7010   -1.2460   12.1380 C   0  0  0  0  0  0  0  0  0  0  0  0
  -30.3920   -1.6370   12.4280 C   0  0  0  0  0  0  0  0  0  0  0  0
  -29.3580   -1.3040   11.5560 C   0  0  0  0  0  0  0  0  0  0  0  0
  -29.6430   -0.5820   10.4030 C   0  0  0  0  0  0  0  0  0  0  0  0
  -28.6490   -0.2570    9.5650 F   0  0  0  0  0  0  0  0  0  0  0  0
  -30.9440   -0.1880   10.1040 C   0  0  0  0  0  0  0  0  0  0  0  0
  1  7  1  0
  2  3  1  0
  2  1  2  0
  4  3  1  6
  4  8  1  0
  4  5  1  0
  5  6  1  0
  7  6  1  1
  8  7  1  0
  9 11  1  0
  9  8  1  0
 10  9  2  0
 12  2  1  0
 13 12  2  0
 14 13  1  0
 15 14  2  0
 15 16  1  0
 16 17  2  0
 17 12  1  0
 18 16  1  0
 18 19  1  0
 19 20  1  0
 20 25  1  0
 21 22  1  0
 21 20  2  0
 22 23  2  0
 23 24  1  0
 25 24  2  0
 26 27  2  0
 26  1  1  0
 28 29  1  0
 29 26  1  0
 30 11  1  0
 30 31  1  0
 31 32  2  0
 32 33  1  0
 34 33  2  0
 35 34  1  0
 36 35  1  0
 37 35  2  0
 37 31  1  0
M  END
$$$$
