lig_356
     RDKit          3D

 32 36  0  0  0  0  0  0  0  0999 V2000
    1.3010  -18.3610   12.8710 N   0  0  0  0  0  0  0  0  0  0  0  0
    0.0300  -18.0380   12.1800 C   0  0  0  0  0  0  0  0  0  0  0  0
   -0.6540  -16.7590   12.7290 C   0  0  0  0  0  0  0  0  0  0  0  0
    0.2570  -15.5980   12.7110 N   0  0  0  0  0  0  0  0  0  0  0  0
    1.5190  -15.9030   13.4260 C   0  0  0  0  0  0  0  0  0  0  0  0
    2.1880  -17.1690   12.8400 C   0  0  0  0  0  0  0  0  0  0  0  0
    0.3490  -14.7720   11.5870 C   0  0  0  0  0  0  0  0  0  0  0  0
    1.2880  -14.9580   10.5640 C   0  0  0  0  0  0  0  0  0  0  0  0
    1.3440  -14.1130    9.4510 C   0  0  0  0  0  0  0  0  0  0  0  0
    0.4420  -13.0600    9.3250 C   0  0  0  0  0  0  0  0  0  0  0  0
   -0.5380  -12.8470   10.2990 C   0  0  0  0  0  0  0  0  0  0  0  0
   -0.5660  -13.7150   11.4100 C   0  0  0  0  0  0  0  0  0  0  0  0
   -1.5170  -11.7560   10.1650 C   0  0  0  0  0  0  0  0  0  0  0  0
   -2.8890  -12.0270   10.0330 C   0  0  0  0  0  0  0  0  0  0  0  0
   -3.8200  -10.9920    9.9040 C   0  0  0  0  0  0  0  0  0  0  0  0
   -3.3930   -9.6660    9.9060 C   0  0  0  0  0  0  0  0  0  0  0  0
   -2.0370   -9.3750   10.0360 C   0  0  0  0  0  0  0  0  0  0  0  0
   -1.1080  -10.4110   10.1640 C   0  0  0  0  0  0  0  0  0  0  0  0
    1.9920  -19.5140   12.2700 C   0  0  0  0  0  0  0  0  0  0  0  0
    1.1100  -20.7630   12.1810 C   0  0  0  0  0  0  0  0  0  0  0  0
    1.2460  -21.6110   13.4500 C   0  0  0  0  0  0  0  0  0  0  0  0
    0.9120  -19.9720   15.6450 O   0  0  0  0  0  0  0  0  0  0  0  0
   -0.0310  -20.6940   15.3200 C   0  0  0  0  0  0  0  0  0  0  0  0
   -1.3660  -20.5510   16.0110 C   0  0  0  0  0  0  0  0  0  0  0  0
   -2.0280  -21.8980   16.1960 C   0  0  0  0  0  0  0  0  0  0  0  0
   -2.1130  -22.6060   14.8750 C   0  0  0  0  0  0  0  0  0  0  0  0
   -3.1870  -23.4690   14.6130 C   0  0  0  0  0  0  0  0  0  0  0  0
   -3.2430  -24.1790   13.4170 C   0  0  0  0  0  0  0  0  0  0  0  0
   -2.2200  -24.0390   12.4850 C   0  0  0  0  0  0  0  0  0  0  0  0
   -1.1400  -23.1900   12.7480 C   0  0  0  0  0  0  0  0  0  0  0  0
   -1.0710  -22.4610   13.9430 C   0  0  0  0  0  0  0  0  0  0  0  0
    0.0240  -21.5980   14.2560 N   0  0  0  0  0  0  0  0  0  0  0  0
  2  3  1  0
  2  1  1  0
  4  3  1  0
  4  5  1  0
  6  1  1  0
  6  5  1  0
  7  4  1  0
  8  7  2  0
  9  8  1  0
 10  9  2  0
 10 11  1  0
 11 12  2  0
 12  7  1  0
 13 11  1  0
 14 13  2  0
 15 16  2  0
 15 14  1  0
 16 17  1  0
 17 18  2  0
 18 13  1  0
 19  1  1  0
 20 19  1  0
 20 21  1  0
 21 32  1  0
 23 22  2  0
 23 24  1  0
 24 25  1  0
 26 25  1  0
 27 26  2  0
 28 27  1  0
 29 30  1  0
 29 28  2  0
 30 31  2  0
 31 32  1  0
 31 26  1  0
 32 23  1  0
M  END
$$$$
