lig_317
     RDKit          3D

 26 30  0  0  0  0  0  0  0  0999 V2000
    1.1050   12.7120   15.2070 O   0  0  0  0  0  0  0  0  0  0  0  0
    0.0840   13.3800   15.0670 C   0  0  0  0  0  0  0  0  0  0  0  0
   -1.2200   12.8390   15.2080 C   0  0  0  0  0  0  0  0  0  0  0  0
   -2.3530   13.5830   15.0570 C   0  0  0  0  0  0  0  0  0  0  0  0
   -3.4840   12.8470   15.2340 N   0  0  0  0  0  0  0  0  0  0  0  0
   -3.0460   11.6330   15.5090 C   0  0  0  0  0  0  0  0  0  0  0  0
   -3.7500   10.4280   15.7950 C   0  0  0  0  0  0  0  0  0  0  0  0
   -3.0650    9.2960   16.0480 C   0  0  0  0  0  0  0  0  0  0  0  0
   -1.6100    9.2690   16.0370 C   0  0  0  0  0  0  0  0  0  0  0  0
   -0.9380   10.4020   15.7680 C   0  0  0  0  0  0  0  0  0  0  0  0
   -1.6490   11.5730   15.5060 N   0  0  0  0  0  0  0  0  0  0  0  0
   -2.3040   14.9240   14.7500 N   0  0  0  0  0  0  0  0  0  0  0  0
   -1.0640   15.5420   14.5770 C   0  0  0  0  0  0  0  0  0  0  0  0
   -0.9790   16.7350   14.2680 O   0  0  0  0  0  0  0  0  0  0  0  0
    0.0830   14.7440   14.7540 N   0  0  0  0  0  0  0  0  0  0  0  0
   -3.5220   15.7180   14.6510 C   0  0  0  0  0  0  0  0  0  0  0  0
   -3.9950   15.8640   13.2210 C   0  0  0  0  0  0  0  0  0  0  0  0
   -4.4400   14.7450   12.5020 C   0  0  0  0  0  0  0  0  0  0  0  0
   -4.8950   14.8810   11.1890 C   0  0  0  0  0  0  0  0  0  0  0  0
   -4.9160   16.1370   10.5850 C   0  0  0  0  0  0  0  0  0  0  0  0
   -4.4860   17.2580   11.2920 C   0  0  0  0  0  0  0  0  0  0  0  0
   -4.0310   17.1230   12.6050 C   0  0  0  0  0  0  0  0  0  0  0  0
    1.3810   15.3900   14.6190 C   0  0  0  0  0  0  0  0  0  0  0  0
    1.9090   15.2190   13.2210 C   0  0  0  0  0  0  0  0  0  0  0  0
    1.7400   16.3200   12.2050 C   0  0  0  0  0  0  0  0  0  0  0  0
    3.1080   15.9970   12.7400 C   0  0  0  0  0  0  0  0  0  0  0  0
  2  1  2  0
  2  3  1  0
  3 11  1  0
  4  3  2  0
  4  5  1  0
  5  6  2  0
  6  7  1  0
  7  8  2  0
  9  8  1  0
 10  9  2  0
 11  6  1  0
 11 10  1  0
 12  4  1  0
 13 12  1  0
 13 15  1  0
 14 13  2  0
 15  2  1  0
 16 12  1  0
 17 16  1  0
 18 17  2  0
 19 18  1  0
 20 19  2  0
 20 21  1  0
 21 22  2  0
 22 17  1  0
 23 15  1  0
 24 23  1  0
 25 26  1  0
 25 24  1  0
 26 24  1  0
M  END
$$$$
