lig_140
     RDKit          3D

 35 38  0  0  1  0  0  0  0  0999 V2000
   -0.2510  -19.6560   14.2120 C   0  0  1  0  0  0  0  0  0  0  0  0
   -1.2970  -20.7280   13.8750 C   0  0  0  0  0  0  0  0  0  0  0  0
   -0.8340  -21.6710   12.7630 C   0  0  0  0  0  0  0  0  0  0  0  0
    0.5350  -22.3150   13.0450 C   0  0  1  0  0  0  0  0  0  0  0  0
    1.5710  -21.2220   13.3500 C   0  0  0  0  0  0  0  0  0  0  0  0
    1.1290  -20.2750   14.4670 C   0  0  0  0  0  0  0  0  0  0  0  0
    0.1010  -17.3310   13.4420 C   0  0  0  0  0  0  0  0  0  0  0  0
    0.3890  -16.9080   14.5530 O   0  0  0  0  0  0  0  0  0  0  0  0
   -0.1790  -18.6470   13.1590 N   0  0  0  0  0  0  0  0  0  0  0  0
   -0.1280  -15.1270   12.4070 C   0  0  0  0  0  0  0  0  0  0  0  0
    0.0030  -16.4530   12.2480 C   0  0  0  0  0  0  0  0  0  0  0  0
   -1.1800  -12.1270   10.3810 C   0  0  0  0  0  0  0  0  0  0  0  0
   -0.4940  -12.3430    9.1790 C   0  0  0  0  0  0  0  0  0  0  0  0
    0.3140  -13.4700    9.0300 C   0  0  0  0  0  0  0  0  0  0  0  0
    0.4460  -14.3840   10.0780 C   0  0  0  0  0  0  0  0  0  0  0  0
   -0.2190  -14.1760   11.2930 C   0  0  0  0  0  0  0  0  0  0  0  0
   -1.0420  -13.0500   11.4280 C   0  0  0  0  0  0  0  0  0  0  0  0
   -3.4770  -10.9810   10.0740 C   0  0  0  0  0  0  0  0  0  0  0  0
   -2.0630  -10.9400   10.5900 C   0  0  0  0  0  0  0  0  0  0  0  0
   -1.6310   -9.9490   11.1750 O   0  0  0  0  0  0  0  0  0  0  0  0
    0.4180  -23.3920   14.1510 C   0  0  0  0  0  0  0  0  0  0  0  0
   -0.7190  -24.4120   13.9610 C   0  0  0  0  0  0  0  0  0  0  0  0
   -1.6250  -24.5390   15.1160 N   0  0  0  0  0  0  0  0  0  0  0  0
   -2.9070  -23.8510   14.8810 C   0  0  0  0  0  0  0  0  0  0  0  0
   -3.8050  -23.7250   16.1220 C   0  0  0  0  0  0  0  0  0  0  0  0
   -3.5060  -22.5410   17.0210 C   0  0  0  0  0  0  0  0  0  0  0  0
   -4.6020  -21.9390   17.6710 C   0  0  0  0  0  0  0  0  0  0  0  0
   -4.4340  -20.8380   18.5120 C   0  0  0  0  0  0  0  0  0  0  0  0
   -3.1600  -20.3190   18.7250 C   0  0  0  0  0  0  0  0  0  0  0  0
   -2.0600  -20.9190   18.1030 C   0  0  0  0  0  0  0  0  0  0  0  0
   -2.2110  -22.0450   17.2650 C   0  0  0  0  0  0  0  0  0  0  0  0
   -0.9490  -22.6190   16.6540 C   0  0  0  0  0  0  0  0  0  0  0  0
   -0.9680  -24.1260   16.3670 C   0  0  0  0  0  0  0  0  0  0  0  0
   -2.9760  -19.1830   19.5780 C   0  0  0  0  0  0  0  0  0  0  0  0
   -2.8280  -18.2640   20.2720 N   0  0  0  0  0  0  0  0  0  0  0  0
  1  9  1  6
  1  6  1  0
  2  1  1  0
  3  4  1  0
  3  2  1  0
  4  5  1  0
  4 21  1  1
  5  6  1  0
  7  8  2  0
  9  7  1  0
 11 10  2  0
 11  7  1  0
 12 19  1  0
 12 17  1  0
 13 12  2  0
 14 13  1  0
 14 15  2  0
 15 16  1  0
 16 17  2  0
 16 10  1  0
 18 19  1  0
 19 20  2  0
 22 21  1  0
 22 23  1  0
 23 33  1  0
 24 23  1  0
 24 25  1  0
 25 26  1  0
 26 31  2  0
 26 27  1  0
 27 28  2  0
 28 29  1  0
 29 34  1  0
 30 29  2  0
 31 30  1  0
 32 31  1  0
 33 32  1  0
 34 35  3  0
M  END
$$$$
