lig_343
     RDKit          3D

 30 34  0  0  1  0  0  0  0  0999 V2000
    1.5910  -18.7490   13.9710 C   0  0  2  0  0  0  0  0  0  0  0  0
    2.2420  -17.8060   14.9550 C   0  0  0  0  0  0  0  0  0  0  0  0
    1.6510  -17.2650   13.6760 C   0  0  1  0  0  0  0  0  0  0  0  0
    0.2740  -19.4000   14.2880 C   0  0  0  0  0  0  0  0  0  0  0  0
   -1.7840  -24.2260   15.3280 C   0  0  0  0  0  0  0  0  0  0  0  0
   -0.4960  -24.7590   15.2420 C   0  0  0  0  0  0  0  0  0  0  0  0
    0.5050  -24.0620   14.5640 C   0  0  0  0  0  0  0  0  0  0  0  0
    0.2260  -22.8270   13.9650 C   0  0  0  0  0  0  0  0  0  0  0  0
   -1.0650  -22.2740   14.0640 C   0  0  0  0  0  0  0  0  0  0  0  0
   -2.0670  -22.9900   14.7380 C   0  0  0  0  0  0  0  0  0  0  0  0
   -1.4030  -20.9570   13.3930 C   0  0  0  0  0  0  0  0  0  0  0  0
   -0.2460  -20.0920   13.1020 N   0  0  0  0  0  0  0  0  0  0  0  0
    0.7940  -20.8900   12.4300 C   0  0  0  0  0  0  0  0  0  0  0  0
    1.3260  -22.0630   13.2690 C   0  0  0  0  0  0  0  0  0  0  0  0
   -3.6510  -25.5250   16.5770 N   0  0  0  0  0  0  0  0  0  0  0  0
   -2.8150  -24.9440   16.0190 C   0  0  0  0  0  0  0  0  0  0  0  0
    2.5320  -16.7490   12.5850 C   0  0  0  0  0  0  0  0  0  0  0  0
    1.9130  -15.5880   11.9930 N   0  0  0  0  0  0  0  0  0  0  0  0
    0.7030  -15.6610   11.3380 C   0  0  0  0  0  0  0  0  0  0  0  0
    0.0860  -16.6980   11.1340 O   0  0  0  0  0  0  0  0  0  0  0  0
    0.1620  -14.3570   10.8850 C   0  0  0  0  0  0  0  0  0  0  0  0
   -0.6970  -13.6810   11.7510 C   0  0  0  0  0  0  0  0  0  0  0  0
   -1.2020  -12.4720   11.3290 C   0  0  0  0  0  0  0  0  0  0  0  0
   -0.9070  -11.9170   10.1370 N   0  0  0  0  0  0  0  0  0  0  0  0
   -0.0880  -12.5780    9.2990 C   0  0  0  0  0  0  0  0  0  0  0  0
    0.2040  -11.9990    8.0710 C   0  0  0  0  0  0  0  0  0  0  0  0
    1.0480  -12.6120    7.1430 C   0  0  0  0  0  0  0  0  0  0  0  0
    1.6200  -13.8400    7.4450 C   0  0  0  0  0  0  0  0  0  0  0  0
    1.3460  -14.4430    8.6710 C   0  0  0  0  0  0  0  0  0  0  0  0
    0.4870  -13.8260    9.6160 C   0  0  0  0  0  0  0  0  0  0  0  0
  1  4  1  1
  1  2  1  0
  3 17  1  6
  3  1  1  0
  3  2  1  0
  5 16  1  0
  6  5  1  0
  7  6  2  0
  8  9  2  0
  8  7  1  0
  9 10  1  0
 10  5  2  0
 11  9  1  0
 12 11  1  0
 12  4  1  0
 13 12  1  0
 13 14  1  0
 14  8  1  0
 16 15  3  0
 18 17  1  0
 19 18  1  0
 20 19  2  0
 21 19  1  0
 21 22  2  0
 23 22  1  0
 24 23  2  0
 25 30  1  0
 25 24  1  0
 26 25  2  0
 27 28  2  0
 27 26  1  0
 28 29  1  0
 29 30  2  0
 30 21  1  0
M  END
$$$$
