lig_276
     RDKit          3D

 22 25  0  0  0  0  0  0  0  0999 V2000
    1.1640    6.5100   18.2460 N   0  0  0  0  0  0  0  0  0  0  0  0
   -0.0460    6.9060   17.7150 C   0  0  0  0  0  0  0  0  0  0  0  0
   -0.1030    8.1470   17.2100 N   0  0  0  0  0  0  0  0  0  0  0  0
   -1.2750    8.5810   16.6660 C   0  0  0  0  0  0  0  0  0  0  0  0
   -2.3740    7.7300   16.6340 C   0  0  0  0  0  0  0  0  0  0  0  0
   -3.6680    7.8160   16.1880 N   0  0  0  0  0  0  0  0  0  0  0  0
   -4.2720    6.6580   16.4360 N   0  0  0  0  0  0  0  0  0  0  0  0
   -3.3610    5.8420   17.0120 N   0  0  0  0  0  0  0  0  0  0  0  0
   -2.1620    6.4740   17.1730 C   0  0  0  0  0  0  0  0  0  0  0  0
   -1.0340    6.0010   17.7230 N   0  0  0  0  0  0  0  0  0  0  0  0
   -1.2990    9.9310   16.1470 C   0  0  0  0  0  0  0  0  0  0  0  0
   -1.4840   11.1690   16.7340 C   0  0  0  0  0  0  0  0  0  0  0  0
   -1.3960   12.1310   15.6990 C   0  0  0  0  0  0  0  0  0  0  0  0
   -1.1630   11.4250   14.5430 C   0  0  0  0  0  0  0  0  0  0  0  0
   -1.1020   10.0940   14.8040 O   0  0  0  0  0  0  0  0  0  0  0  0
   -3.7230    4.5030   17.4140 C   0  0  0  0  0  0  0  0  0  0  0  0
   -5.2150    4.3370   17.4760 C   0  0  0  0  0  0  0  0  0  0  0  0
   -5.8650    3.3490   16.7380 C   0  0  0  0  0  0  0  0  0  0  0  0
   -7.2090    3.1830   16.7560 N   0  0  0  0  0  0  0  0  0  0  0  0
   -7.8900    4.0410   17.5460 C   0  0  0  0  0  0  0  0  0  0  0  0
   -7.2580    5.0260   18.2800 C   0  0  0  0  0  0  0  0  0  0  0  0
   -5.9160    5.1990   18.2600 N   0  0  0  0  0  0  0  0  0  0  0  0
  2 10  1  0
  2  1  1  0
  3  2  2  0
  4  3  1  0
  5  4  2  0
  5  9  1  0
  6  7  2  0
  6  5  1  0
  7  8  1  0
  8  9  1  0
  8 16  1  0
  9 10  2  0
 11  4  1  0
 11 12  2  0
 13 12  1  0
 14 15  1  0
 14 13  2  0
 15 11  1  0
 16 17  1  0
 17 22  2  0
 18 19  2  0
 18 17  1  0
 19 20  1  0
 20 21  2  0
 22 21  1  0
M  END
$$$$
