lig_205
     RDKit          3D

 34 38  0  0  1  0  0  0  0  0999 V2000
   -1.4380    5.7160   17.3760 C   0  0  0  0  0  0  0  0  0  0  0  0
   -2.6130    6.2740   16.8630 C   0  0  0  0  0  0  0  0  0  0  0  0
   -2.6740    7.6360   16.5490 C   0  0  0  0  0  0  0  0  0  0  0  0
   -3.8920    8.1570   16.0290 N   0  0  0  0  0  0  0  0  0  0  0  0
   -3.9670    9.4240   15.7120 C   0  0  0  0  0  0  0  0  0  0  0  0
   -5.1200    9.9640   15.2020 N   0  0  0  0  0  0  0  0  0  0  0  0
   -2.8570   10.2660   15.9100 N   0  0  0  0  0  0  0  0  0  0  0  0
   -2.8510   11.6000   15.6780 N   0  0  0  0  0  0  0  0  0  0  0  0
   -1.5920   11.9100   16.0250 C   0  0  0  0  0  0  0  0  0  0  0  0
   -0.8340   10.8600   16.4950 N   0  0  0  0  0  0  0  0  0  0  0  0
   -1.6620    9.8410   16.4130 C   0  0  0  0  0  0  0  0  0  0  0  0
   -1.5310    8.4440   16.7550 C   0  0  0  0  0  0  0  0  0  0  0  0
   -0.3560    7.9000   17.2670 C   0  0  0  0  0  0  0  0  0  0  0  0
   -0.3220    6.5440   17.5710 C   0  0  0  0  0  0  0  0  0  0  0  0
    0.8150    6.0300   18.0630 F   0  0  0  0  0  0  0  0  0  0  0  0
   -1.0500   13.2960   15.9160 C   0  0  2  0  0  0  0  0  0  0  0  0
   -1.6320   14.2160   17.0070 C   0  0  0  0  0  0  0  0  0  0  0  0
   -1.1430   15.6680   16.8430 C   0  0  2  0  0  0  0  0  0  0  0  0
   -1.8120   16.5810   17.8670 C   0  0  0  0  0  0  0  0  0  0  0  0
   -1.4050   16.1680   15.4140 C   0  0  0  0  0  0  0  0  0  0  0  0
   -0.7720   15.2530   14.4510 N   0  0  0  0  0  0  0  0  0  0  0  0
    0.5270   15.5020   14.0500 C   0  0  0  0  0  0  0  0  0  0  0  0
    1.2540   16.5120   14.4050 N   0  0  0  0  0  0  0  0  0  0  0  0
    2.5520   16.3040   13.7260 C   0  0  1  0  0  0  0  0  0  0  0  0
    2.4980   15.0760   12.9000 N   0  0  0  0  0  0  0  0  0  0  0  0
    1.3050   14.6430   13.1130 C   0  0  0  0  0  0  0  0  0  0  0  0
   -1.3240   13.8920   14.5250 C   0  0  0  0  0  0  0  0  0  0  0  0
    2.8510   17.5210   12.8420 C   0  0  0  0  0  0  0  0  0  0  0  0
    4.2370   17.5090   12.1620 C   0  0  0  0  0  0  0  0  0  0  0  0
    4.0610   17.4520   10.6420 C   0  0  0  0  0  0  0  0  0  0  0  0
    5.0930   18.7210   12.5360 C   0  0  0  0  0  0  0  0  0  0  0  0
    4.9560   16.3290   12.5340 O   0  0  0  0  0  0  0  0  0  0  0  0
   -2.3470    3.7510   18.3700 C   0  0  0  0  0  0  0  0  0  0  0  0
   -1.2650    4.4020   17.7180 O   0  0  0  0  0  0  0  0  0  0  0  0
  1 14  1  0
  1 34  1  0
  2  1  2  0
  3 12  2  0
  3  2  1  0
  4  3  1  0
  5  7  1  0
  5  4  2  0
  6  5  1  0
  7 11  1  0
  8  7  1  0
  8  9  2  0
  9 10  1  0
 11 10  2  0
 11 12  1  0
 12 13  1  0
 13 14  2  0
 14 15  1  0
 16  9  1  6
 16 17  1  0
 18 17  1  0
 18 19  1  1
 20 18  1  0
 21 27  1  0
 21 20  1  0
 22 23  2  0
 22 21  1  0
 24 28  1  6
 24 23  1  0
 25 26  2  0
 25 24  1  0
 26 22  1  0
 27 16  1  0
 29 32  1  0
 29 31  1  0
 29 28  1  0
 30 29  1  0
 34 33  1  0
M  END
$$$$
