lig_238
     RDKit          3D

 29 32  0  0  0  0  0  0  0  0999 V2000
   -2.1320  -22.8890   18.2760 C   0  0  0  0  0  0  0  0  0  0  0  0
   -2.4780  -24.2700   17.7010 C   0  0  0  0  0  0  0  0  0  0  0  0
   -0.4540  -19.5670   11.3610 C   0  0  0  0  0  0  0  0  0  0  0  0
    0.1190  -20.5670   12.3180 C   0  0  0  0  0  0  0  0  0  0  0  0
    1.4850  -20.8160   12.3320 C   0  0  0  0  0  0  0  0  0  0  0  0
    1.9740  -21.7410   13.2400 C   0  0  0  0  0  0  0  0  0  0  0  0
    1.0860  -22.3890   14.0960 C   0  0  0  0  0  0  0  0  0  0  0  0
   -0.2800  -22.1110   14.0270 C   0  0  0  0  0  0  0  0  0  0  0  0
   -1.1750  -22.7530   14.8950 N   0  0  0  0  0  0  0  0  0  0  0  0
   -2.5620  -22.2730   14.8040 C   0  0  0  0  0  0  0  0  0  0  0  0
   -3.4080  -22.8330   15.9790 C   0  0  0  0  0  0  0  0  0  0  0  0
   -3.1520  -24.2410   16.3920 N   0  0  0  0  0  0  0  0  0  0  0  0
   -2.3700  -24.9170   15.3340 C   0  0  0  0  0  0  0  0  0  0  0  0
   -1.0400  -24.2230   14.9430 C   0  0  0  0  0  0  0  0  0  0  0  0
   -0.7480  -21.1960   13.1490 N   0  0  0  0  0  0  0  0  0  0  0  0
   -0.6400  -22.5270   18.2700 C   0  0  0  0  0  0  0  0  0  0  0  0
   -0.3220  -21.0870   18.6730 C   0  0  0  0  0  0  0  0  0  0  0  0
    0.2470  -20.3110   17.5900 N   0  0  0  0  0  0  0  0  0  0  0  0
   -0.5410  -19.5790   16.7190 C   0  0  0  0  0  0  0  0  0  0  0  0
   -1.7660  -19.5830   16.8070 O   0  0  0  0  0  0  0  0  0  0  0  0
    0.1920  -18.8170   15.7220 C   0  0  0  0  0  0  0  0  0  0  0  0
    1.4940  -18.8730   15.2490 C   0  0  0  0  0  0  0  0  0  0  0  0
    1.6270  -17.8590   14.2620 C   0  0  0  0  0  0  0  0  0  0  0  0
    2.6570  -17.4000   13.4240 C   0  0  0  0  0  0  0  0  0  0  0  0
    2.3880  -16.3340   12.5510 C   0  0  0  0  0  0  0  0  0  0  0  0
    1.1250  -15.7380   12.5100 C   0  0  0  0  0  0  0  0  0  0  0  0
    0.0880  -16.1820   13.3370 C   0  0  0  0  0  0  0  0  0  0  0  0
    0.3870  -17.2410   14.1910 C   0  0  0  0  0  0  0  0  0  0  0  0
   -0.4780  -17.8150   15.0670 O   0  0  0  0  0  0  0  0  0  0  0  0
  2  1  1  0
  3  4  1  0
  4  5  1  0
  4 15  2  0
  5  6  2  0
  6  7  1  0
  8  7  2  0
  8  9  1  0
  9 14  1  0
 10  9  1  0
 10 11  1  0
 11 12  1  0
 12  2  1  0
 13 12  1  0
 14 13  1  0
 15  8  1  0
 16  1  2  0
 16 17  1  0
 18 17  1  0
 19 20  2  0
 19 18  1  0
 21 19  1  0
 22 21  2  0
 23 22  1  0
 24 23  2  0
 25 24  1  0
 26 25  2  0
 26 27  1  0
 27 28  2  0
 28 23  1  0
 28 29  1  0
 29 21  1  0
M  END
$$$$
