lig_492
     RDKit          3D

 28 31  0  0  0  0  0  0  0  0999 V2000
   -2.3060   13.5770   14.9250 C   0  0  0  0  0  0  0  0  0  0  0  0
   -2.7580   13.8040   13.8070 O   0  0  0  0  0  0  0  0  0  0  0  0
   -4.4920   11.5320   15.9770 C   0  0  0  0  0  0  0  0  0  0  0  0
   -3.0200   11.3260   15.8880 C   0  0  0  0  0  0  0  0  0  0  0  0
   -2.5110   10.1050   16.3000 N   0  0  0  0  0  0  0  0  0  0  0  0
   -1.2050   10.0620   16.1790 C   0  0  0  0  0  0  0  0  0  0  0  0
   -0.3740    9.0390   16.4830 N   0  0  0  0  0  0  0  0  0  0  0  0
   -0.5190   11.5170   15.5550 S   0  0  0  0  0  0  0  0  0  0  0  0
   -2.0760   12.2240   15.4170 C   0  0  0  0  0  0  0  0  0  0  0  0
   -0.6700    7.7600   16.9910 C   0  0  0  0  0  0  0  0  0  0  0  0
   -1.9060    7.1220   16.8480 C   0  0  0  0  0  0  0  0  0  0  0  0
   -2.1320    5.8470   17.3800 C   0  0  0  0  0  0  0  0  0  0  0  0
   -1.1200    5.1840   18.0670 C   0  0  0  0  0  0  0  0  0  0  0  0
    0.1190    5.7970   18.2230 C   0  0  0  0  0  0  0  0  0  0  0  0
    0.3390    7.0710   17.6890 C   0  0  0  0  0  0  0  0  0  0  0  0
   -1.9710   14.6570   15.8180 C   0  0  0  0  0  0  0  0  0  0  0  0
   -2.5970   14.9610   17.0090 C   0  0  0  0  0  0  0  0  0  0  0  0
   -1.9590   15.9720   17.6620 N   0  0  0  0  0  0  0  0  0  0  0  0
   -0.9830   16.3450   16.8700 C   0  0  0  0  0  0  0  0  0  0  0  0
   -0.1850   17.4050   17.1220 N   0  0  0  0  0  0  0  0  0  0  0  0
   -0.9430   15.5860   15.6970 N   0  0  0  0  0  0  0  0  0  0  0  0
   -0.0430   15.7320   14.5990 C   0  0  0  0  0  0  0  0  0  0  0  0
   -0.2650   16.7270   13.6340 C   0  0  0  0  0  0  0  0  0  0  0  0
    0.6280   16.8830   12.5710 C   0  0  0  0  0  0  0  0  0  0  0  0
    1.7330   16.0460   12.4730 C   0  0  0  0  0  0  0  0  0  0  0  0
    2.5850   16.1960   11.4510 F   0  0  0  0  0  0  0  0  0  0  0  0
    1.9640   15.0530   13.4170 C   0  0  0  0  0  0  0  0  0  0  0  0
    1.0760   14.8910   14.4840 C   0  0  0  0  0  0  0  0  0  0  0  0
  1  9  1  0
  1 16  1  0
  2  1  2  0
  4  3  1  0
  4  5  1  0
  6  5  2  0
  6  7  1  0
  7 10  1  0
  8  6  1  0
  9  8  1  0
  9  4  2  0
 10 15  1  0
 11 10  2  0
 11 12  1  0
 12 13  2  0
 13 14  1  0
 15 14  2  0
 16 17  2  0
 17 18  1  0
 19 20  1  0
 19 18  2  0
 21 16  1  0
 21 19  1  0
 22 21  1  0
 23 22  1  0
 24 23  2  0
 25 24  1  0
 25 27  2  0
 26 25  1  0
 27 28  1  0
 28 22  2  0
M  END
$$$$
