lig_404
     RDKit          3D

 23 26  0  0  0  0  0  0  0  0999 V2000
   -2.2850   11.5130   15.0860 O   0  0  0  0  0  0  0  0  0  0  0  0
   -1.2610   11.0910   15.5980 C   0  0  0  0  0  0  0  0  0  0  0  0
   -1.0790    9.8770   16.2010 N   0  0  0  0  0  0  0  0  0  0  0  0
   -2.0140    8.8520   16.3370 C   0  0  0  0  0  0  0  0  0  0  0  0
   -3.3200    8.8910   15.8710 C   0  0  0  0  0  0  0  0  0  0  0  0
   -4.1890    7.8610   16.0370 N   0  0  0  0  0  0  0  0  0  0  0  0
   -3.7240    6.7610   16.6970 C   0  0  0  0  0  0  0  0  0  0  0  0
   -2.3990    6.7100   17.1510 C   0  0  0  0  0  0  0  0  0  0  0  0
   -1.5400    7.7650   16.9780 N   0  0  0  0  0  0  0  0  0  0  0  0
   -4.7440    5.7150   16.8690 C   0  0  0  0  0  0  0  0  0  0  0  0
   -5.7070    5.7770   17.8840 C   0  0  0  0  0  0  0  0  0  0  0  0
   -6.6550    4.7680   17.9750 C   0  0  0  0  0  0  0  0  0  0  0  0
   -6.7240    3.7220   17.1280 N   0  0  0  0  0  0  0  0  0  0  0  0
   -5.8040    3.6850   16.1420 C   0  0  0  0  0  0  0  0  0  0  0  0
   -4.8160    4.6410   15.9720 C   0  0  0  0  0  0  0  0  0  0  0  0
   -1.8010    5.5380   17.7940 C   0  0  0  0  0  0  0  0  0  0  0  0
   -2.3330    4.3740   18.1290 N   0  0  0  0  0  0  0  0  0  0  0  0
   -1.2950    3.6700   18.6840 C   0  0  0  0  0  0  0  0  0  0  0  0
   -0.1580    4.4330   18.6730 C   0  0  0  0  0  0  0  0  0  0  0  0
   -0.4620    5.6320   18.1080 O   0  0  0  0  0  0  0  0  0  0  0  0
   -0.0470   11.9520   15.6330 C   0  0  0  0  0  0  0  0  0  0  0  0
   -0.1810   13.4120   16.0020 C   0  0  0  0  0  0  0  0  0  0  0  0
    0.1820   13.0300   14.5980 C   0  0  0  0  0  0  0  0  0  0  0  0
  1  2  2  0
  2 21  1  0
  2  3  1  0
  3  4  1  0
  4  9  2  0
  5  6  2  0
  5  4  1  0
  6  7  1  0
  7 10  1  0
  7  8  2  0
  8 16  1  0
  9  8  1  0
 10 11  1  0
 11 12  2  0
 13 12  1  0
 14 13  2  0
 15 14  1  0
 15 10  2  0
 16 20  1  0
 16 17  2  0
 17 18  1  0
 19 18  2  0
 20 19  1  0
 21 22  1  0
 23 21  1  0
 23 22  1  0
M  END
$$$$
