lig_118
     RDKit          3D

 36 39  0  0  0  0  0  0  0  0999 V2000
   -0.4080  -22.9780   13.6190 C   0  0  0  0  0  0  0  0  0  0  0  0
   -0.9180  -24.4240   13.5530 C   0  0  0  0  0  0  0  0  0  0  0  0
   -3.3970  -22.9570   16.4610 N   0  0  0  0  0  0  0  0  0  0  0  0
   -4.0750  -23.1140   15.1630 C   0  0  0  0  0  0  0  0  0  0  0  0
   -3.0220  -23.3280   14.0550 C   0  0  0  0  0  0  0  0  0  0  0  0
   -2.2230  -24.5680   14.2130 N   0  0  0  0  0  0  0  0  0  0  0  0
   -2.1240  -24.9530   15.6380 C   0  0  0  0  0  0  0  0  0  0  0  0
   -2.2060  -23.7990   16.6680 C   0  0  0  0  0  0  0  0  0  0  0  0
   -5.4920  -24.1720   20.7350 C   0  0  0  0  0  0  0  0  0  0  0  0
   -5.2340  -23.2160   19.6100 C   0  0  0  0  0  0  0  0  0  0  0  0
   -4.4280  -23.5860   18.5520 C   0  0  0  0  0  0  0  0  0  0  0  0
   -4.2160  -22.6610   17.5470 C   0  0  0  0  0  0  0  0  0  0  0  0
   -4.7620  -21.4350   17.6310 N   0  0  0  0  0  0  0  0  0  0  0  0
   -5.5540  -21.1460   18.6820 C   0  0  0  0  0  0  0  0  0  0  0  0
   -5.8040  -22.0010   19.6890 N   0  0  0  0  0  0  0  0  0  0  0  0
   -6.1280  -19.7350   18.7750 C   0  0  0  0  0  0  0  0  0  0  0  0
   -7.4390  -19.6140   17.9760 C   0  0  0  0  0  0  0  0  0  0  0  0
   -5.1330  -18.6990   18.2140 C   0  0  0  0  0  0  0  0  0  0  0  0
   -6.4060  -19.4210   20.2540 C   0  0  0  0  0  0  0  0  0  0  0  0
    0.8080  -22.8670   14.5440 C   0  0  0  0  0  0  0  0  0  0  0  0
    1.8990  -21.9630   13.9670 C   0  0  0  0  0  0  0  0  0  0  0  0
    1.3680  -20.7550   13.3680 N   0  0  0  0  0  0  0  0  0  0  0  0
    1.2340  -19.6000   14.0950 C   0  0  0  0  0  0  0  0  0  0  0  0
    1.6210  -19.5200   15.2580 O   0  0  0  0  0  0  0  0  0  0  0  0
    0.6640  -18.5390   13.4210 N   0  0  0  0  0  0  0  0  0  0  0  0
    0.5960  -17.2370   14.0900 C   0  0  0  0  0  0  0  0  0  0  0  0
    1.0690  -16.0870   13.1810 C   0  0  0  0  0  0  0  0  0  0  0  0
    0.3380  -16.0590   11.8960 N   0  0  0  0  0  0  0  0  0  0  0  0
   -0.4450  -17.2540   11.5520 C   0  0  0  0  0  0  0  0  0  0  0  0
    0.2680  -18.5430   12.0080 C   0  0  0  0  0  0  0  0  0  0  0  0
    0.1450  -14.8480   11.2430 C   0  0  0  0  0  0  0  0  0  0  0  0
    0.7900  -14.5340   10.0350 C   0  0  0  0  0  0  0  0  0  0  0  0
    0.5950  -13.3070    9.3870 C   0  0  0  0  0  0  0  0  0  0  0  0
   -0.2500  -12.3530    9.9390 C   0  0  0  0  0  0  0  0  0  0  0  0
   -0.8960  -12.6260   11.1370 C   0  0  0  0  0  0  0  0  0  0  0  0
   -0.6960  -13.8570   11.7760 C   0  0  0  0  0  0  0  0  0  0  0  0
  1 20  1  0
  2  1  1  0
  2  6  1  0
  3  8  1  0
  3 12  1  0
  4  3  1  0
  5  6  1  0
  5  4  1  0
  6  7  1  0
  7  8  1  0
 10 15  1  0
 10  9  1  0
 11 10  2  0
 12 13  2  0
 12 11  1  0
 13 14  1  0
 14 16  1  0
 14 15  2  0
 16 19  1  0
 17 16  1  0
 18 16  1  0
 21 20  1  0
 22 21  1  0
 22 23  1  0
 23 24  2  0
 25 26  1  0
 25 23  1  0
 27 26  1  0
 28 27  1  0
 29 28  1  0
 29 30  1  0
 30 25  1  0
 31 36  1  0
 31 28  1  0
 32 31  2  0
 33 34  2  0
 33 32  1  0
 34 35  1  0
 35 36  2  0
M  END
$$$$
