lig_326
     RDKit          3D

 32 36  0  0  0  0  0  0  0  0999 V2000
   -2.1960   10.0380   15.9680 N   0  0  0  0  0  0  0  0  0  0  0  0
   -1.1700   10.2470   14.9280 C   0  0  0  0  0  0  0  0  0  0  0  0
   -1.1950   11.6870   14.3670 C   0  0  0  0  0  0  0  0  0  0  0  0
   -1.0740   12.6950   15.4290 N   0  0  0  0  0  0  0  0  0  0  0  0
   -0.0880   13.6590   15.3350 C   0  0  0  0  0  0  0  0  0  0  0  0
    0.2320   14.3430   16.4540 N   0  0  0  0  0  0  0  0  0  0  0  0
    1.1750   15.3070   16.4310 C   0  0  0  0  0  0  0  0  0  0  0  0
    1.8030   15.6090   15.2170 C   0  0  0  0  0  0  0  0  0  0  0  0
    2.7720   16.5670   14.9360 N   0  0  0  0  0  0  0  0  0  0  0  0
    3.0810   16.5020   13.6550 C   0  0  0  0  0  0  0  0  0  0  0  0
    2.2330   15.3210   12.7340 S   0  0  0  0  0  0  0  0  0  0  0  0
    1.3920   14.8530   14.1380 C   0  0  0  0  0  0  0  0  0  0  0  0
    0.4700   13.8830   14.1370 N   0  0  0  0  0  0  0  0  0  0  0  0
   -1.5010   12.3030   16.7750 C   0  0  0  0  0  0  0  0  0  0  0  0
   -2.6140   11.2300   16.7310 C   0  0  0  0  0  0  0  0  0  0  0  0
   -3.8270    6.2070   16.7600 C   0  0  0  0  0  0  0  0  0  0  0  0
   -2.4750    6.4680   16.9920 C   0  0  0  0  0  0  0  0  0  0  0  0
   -1.9420    7.7370   16.7270 C   0  0  0  0  0  0  0  0  0  0  0  0
   -2.7280    8.7870   16.2270 C   0  0  0  0  0  0  0  0  0  0  0  0
   -4.0850    8.4980   16.0020 C   0  0  0  0  0  0  0  0  0  0  0  0
   -4.6320    7.2320   16.2610 C   0  0  0  0  0  0  0  0  0  0  0  0
   -4.3480    4.8460   17.0540 C   0  0  0  0  0  0  0  0  0  0  0  0
   -3.8350    4.0870   17.8620 O   0  0  0  0  0  0  0  0  0  0  0  0
   -5.4500    4.5830   16.3090 O   0  0  0  0  0  0  0  0  0  0  0  0
   -7.1980    5.0060   17.8810 C   0  0  0  0  0  0  0  0  0  0  0  0
   -6.5120    3.9520   17.0340 C   0  0  0  0  0  0  0  0  0  0  0  0
    4.0670   17.3640   13.0590 C   0  0  0  0  0  0  0  0  0  0  0  0
    4.8250   17.1350   11.9200 C   0  0  0  0  0  0  0  0  0  0  0  0
    5.6550   18.2640   11.7270 C   0  0  0  0  0  0  0  0  0  0  0  0
    5.3620   19.1250   12.7550 C   0  0  0  0  0  0  0  0  0  0  0  0
    4.4110   18.5960   13.5630 O   0  0  0  0  0  0  0  0  0  0  0  0
    1.4650   15.9660   17.6200 N   0  0  0  0  0  0  0  0  0  0  0  0
  1 19  1  0
  1 15  1  0
  2  1  1  0
  3  2  1  0
  3  4  1  0
  4 14  1  0
  5  4  1  0
  5  6  2  0
  7  6  1  0
  7 32  1  0
  8  7  2  0
  9  8  1  0
 10  9  2  0
 11 10  1  0
 11 12  1  0
 12  8  1  0
 13 12  2  0
 13  5  1  0
 15 14  1  0
 16 17  1  0
 16 22  1  0
 18 17  2  0
 19 18  1  0
 20 19  2  0
 20 21  1  0
 21 16  2  0
 22 23  2  0
 24 26  1  0
 24 22  1  0
 26 25  1  0
 27 31  1  0
 27 10  1  0
 28 27  2  0
 29 28  1  0
 29 30  2  0
 30 31  1  0
M  END
$$$$
