lig_137
     RDKit          3D

 29 32  0  0  0  0  0  0  0  0999 V2000
   -7.5600    3.7530   16.7930 C   0  0  0  0  0  0  0  0  0  0  0  0
   -6.0870    3.7360   17.1260 C   0  0  0  0  0  0  0  0  0  0  0  0
   -5.5670    2.7270   17.5840 O   0  0  0  0  0  0  0  0  0  0  0  0
   -5.4860    4.9540   16.8760 N   0  0  0  0  0  0  0  0  0  0  0  0
   -4.1300    5.2540   17.0920 C   0  0  0  0  0  0  0  0  0  0  0  0
   -3.7140    6.5330   16.7850 C   0  0  0  0  0  0  0  0  0  0  0  0
   -2.3830    6.8320   16.9970 C   0  0  0  0  0  0  0  0  0  0  0  0
   -1.5350    5.9170   17.5000 N   0  0  0  0  0  0  0  0  0  0  0  0
   -2.0140    4.6840   17.7770 C   0  0  0  0  0  0  0  0  0  0  0  0
   -1.0920    3.7110   18.3200 N   0  0  0  0  0  0  0  0  0  0  0  0
    0.2180    4.0480   18.5470 N   0  0  0  0  0  0  0  0  0  0  0  0
    0.7850    2.9460   19.0390 C   0  0  0  0  0  0  0  0  0  0  0  0
    2.2240    2.9500   19.3990 C   0  0  0  0  0  0  0  0  0  0  0  0
   -0.1320    1.8870   19.1440 C   0  0  0  0  0  0  0  0  0  0  0  0
   -1.3310    2.3880   18.6830 C   0  0  0  0  0  0  0  0  0  0  0  0
   -2.6460    1.7070   18.5700 C   0  0  0  0  0  0  0  0  0  0  0  0
   -3.2960    4.3300   17.5790 N   0  0  0  0  0  0  0  0  0  0  0  0
   -1.7920    8.1570   16.7180 C   0  0  0  0  0  0  0  0  0  0  0  0
   -0.4620    8.4290   17.0520 C   0  0  0  0  0  0  0  0  0  0  0  0
    0.0530    9.6860   16.7950 C   0  0  0  0  0  0  0  0  0  0  0  0
   -0.6530   10.6860   16.2290 N   0  0  0  0  0  0  0  0  0  0  0  0
   -1.9270   10.4380   15.8720 C   0  0  0  0  0  0  0  0  0  0  0  0
   -2.5150    9.1920   16.1070 C   0  0  0  0  0  0  0  0  0  0  0  0
   -2.6970   11.4420   15.2440 N   0  0  0  0  0  0  0  0  0  0  0  0
   -1.8100   12.4000   14.5350 C   0  0  0  0  0  0  0  0  0  0  0  0
   -2.4940   13.7680   14.3910 C   0  0  0  0  0  0  0  0  0  0  0  0
   -2.7980   14.3840   15.6510 O   0  0  0  0  0  0  0  0  0  0  0  0
   -3.0830   13.4300   16.6920 C   0  0  0  0  0  0  0  0  0  0  0  0
   -3.6580   12.1120   16.1560 C   0  0  0  0  0  0  0  0  0  0  0  0
  1  2  1  0
  2  3  2  0
  4  5  1  0
  4  2  1  0
  5 17  1  0
  6  7  1  0
  6  5  2  0
  7  8  2  0
  8  9  1  0
  9 10  1  0
 10 11  1  0
 10 15  1  0
 11 12  2  0
 12 14  1  0
 12 13  1  0
 15 14  2  0
 16 15  1  0
 17  9  2  0
 18  7  1  0
 18 19  1  0
 20 19  2  0
 21 20  1  0
 22 23  1  0
 22 21  2  0
 23 18  2  0
 24 22  1  0
 24 29  1  0
 25 24  1  0
 26 25  1  0
 26 27  1  0
 27 28  1  0
 29 28  1  0
M  END
$$$$
