lig_444
     RDKit          3D

 25 31  0  0  1  0  0  0  0  0999 V2000
    1.4070  -19.6990   13.6730 N   0  0  0  0  0  0  0  0  0  0  0  0
    1.5420  -18.8530   12.4710 C   0  0  1  0  0  0  0  0  0  0  0  0
    0.2640  -17.9910   12.4350 C   0  0  2  0  0  0  0  0  0  0  0  0
    0.6680  -16.5740   12.0000 C   0  0  1  0  0  0  0  0  0  0  0  0
   -0.2070  -15.6730   12.8670 C   0  0  0  0  0  0  0  0  0  0  0  0
    0.2140  -16.3210   14.1840 C   0  0  2  0  0  0  0  0  0  0  0  0
    1.7480  -16.2420   14.1370 C   0  0  2  0  0  0  0  0  0  0  0  0
    2.0610  -16.4170   12.6290 C   0  0  1  0  0  0  0  0  0  0  0  0
    2.6070  -17.8260   12.9080 C   0  0  1  0  0  0  0  0  0  0  0  0
    2.2950  -17.6500   14.4140 C   0  0  2  0  0  0  0  0  0  0  0  0
    1.0990  -18.5980   14.5840 C   0  0  1  0  0  0  0  0  0  0  0  0
   -0.0520  -17.8160   13.9460 C   0  0  2  0  0  0  0  0  0  0  0  0
    0.9170  -18.9780   15.9110 O   0  0  0  0  0  0  0  0  0  0  0  0
    0.3670  -20.7350   13.5910 C   0  0  0  0  0  0  0  0  0  0  0  0
    0.8470  -22.0840   14.1620 C   0  0  0  0  0  0  0  0  0  0  0  0
   -1.2260  -24.4850   16.3230 C   0  0  0  0  0  0  0  0  0  0  0  0
   -1.3200  -23.7730   17.5200 C   0  0  0  0  0  0  0  0  0  0  0  0
   -0.7240  -22.5170   17.6420 C   0  0  0  0  0  0  0  0  0  0  0  0
   -0.0220  -21.9590   16.5750 C   0  0  0  0  0  0  0  0  0  0  0  0
    0.0870  -22.6400   15.3550 C   0  0  0  0  0  0  0  0  0  0  0  0
   -0.5450  -23.8980   15.2370 C   0  0  0  0  0  0  0  0  0  0  0  0
   -2.9940  -26.0300   16.7490 C   0  0  0  0  0  0  0  0  0  0  0  0
   -1.7510  -25.7340   16.1250 O   0  0  0  0  0  0  0  0  0  0  0  0
   -0.3980  -24.5490   14.0310 O   0  0  0  0  0  0  0  0  0  0  0  0
   -1.4980  -24.3230   13.1530 C   0  0  0  0  0  0  0  0  0  0  0  0
  1 11  1  0
  9  2  1  6
  2  1  1  1
  3  2  1  1
  3 12  1  0
  4  3  1  0
  8  4  1  6
  4  5  1  1
  6  5  1  6
  7  6  1  6
  7 10  1  0
  8  9  1  0
  8  7  1  0
  9 10  1  0
 10 11  1  6
 11 13  1  1
 12  6  1  1
 12 11  1  0
 14  1  1  0
 14 15  1  0
 15 20  1  0
 16 17  2  0
 17 18  1  0
 19 18  2  0
 20 19  1  0
 21 20  2  0
 21 16  1  0
 23 16  1  0
 23 22  1  0
 24 21  1  0
 25 24  1  0
M  END
$$$$
