lig_037
     RDKit          3D

 34 38  0  0  1  0  0  0  0  0999 V2000
   -2.9560    9.6740   15.8380 C   0  0  0  0  0  0  0  0  0  0  0  0
   -2.1700    8.6920   16.3740 N   0  0  0  0  0  0  0  0  0  0  0  0
   -2.7900    7.5160   16.6600 C   0  0  0  0  0  0  0  0  0  0  0  0
   -4.1590    7.3290   16.3850 C   0  0  0  0  0  0  0  0  0  0  0  0
   -4.9270    8.3370   15.8720 N   0  0  0  0  0  0  0  0  0  0  0  0
   -4.3230    9.5120   15.5950 C   0  0  0  0  0  0  0  0  0  0  0  0
   -5.1740   10.5280   15.1770 N   0  0  0  0  0  0  0  0  0  0  0  0
   -1.8970    6.5170   17.2760 C   0  0  0  0  0  0  0  0  0  0  0  0
   -0.5720    6.8510   17.5950 C   0  0  0  0  0  0  0  0  0  0  0  0
    0.2900    5.9140   18.1790 C   0  0  0  0  0  0  0  0  0  0  0  0
   -0.1270    4.6260   18.4740 C   0  0  0  0  0  0  0  0  0  0  0  0
    0.7400    3.7590   19.0270 N   0  0  0  0  0  0  0  0  0  0  0  0
    0.2970    2.5130   19.3070 C   0  0  0  0  0  0  0  0  0  0  0  0
   -0.9900    2.0780   19.0580 C   0  0  0  0  0  0  0  0  0  0  0  0
   -1.8810    2.9760   18.4840 C   0  0  0  0  0  0  0  0  0  0  0  0
   -1.4610    4.2780   18.1790 C   0  0  0  0  0  0  0  0  0  0  0  0
   -2.3300    5.2210   17.5960 C   0  0  0  0  0  0  0  0  0  0  0  0
   -4.8980    6.0690   16.5910 C   0  0  0  0  0  0  0  0  0  0  0  0
   -5.6980    5.8960   17.7340 C   0  0  0  0  0  0  0  0  0  0  0  0
   -6.3980    4.7070   17.9550 C   0  0  0  0  0  0  0  0  0  0  0  0
   -6.3180    3.6720   17.0280 C   0  0  0  0  0  0  0  0  0  0  0  0
   -5.5480    3.8270   15.8790 C   0  0  0  0  0  0  0  0  0  0  0  0
   -4.8500    5.0170   15.6580 C   0  0  0  0  0  0  0  0  0  0  0  0
   -1.8770   11.7270   16.5160 N   0  0  0  0  0  0  0  0  0  0  0  0
   -2.2290   10.9230   15.4480 C   0  0  0  0  0  0  0  0  0  0  0  0
   -1.9370   11.1690   14.2820 O   0  0  0  0  0  0  0  0  0  0  0  0
    0.3050   12.1940   15.5180 C   0  0  0  0  0  0  0  0  0  0  0  0
   -0.8260   12.7330   16.3920 C   0  0  1  0  0  0  0  0  0  0  0  0
   -1.3570   14.0330   15.7940 C   0  0  0  0  0  0  0  0  0  0  0  0
   -2.5900   14.4470   16.1740 N   0  0  0  0  0  0  0  0  0  0  0  0
   -3.0410   15.5820   15.6090 C   0  0  0  0  0  0  0  0  0  0  0  0
   -2.3280   16.3070   14.6850 C   0  0  0  0  0  0  0  0  0  0  0  0
   -1.0960   15.7980   14.3540 C   0  0  0  0  0  0  0  0  0  0  0  0
   -0.5910   14.6670   14.8810 N   0  0  0  0  0  0  0  0  0  0  0  0
  1  2  2  0
  2  3  1  0
  3  8  1  0
  4 18  1  0
  4  3  2  0
  5  4  1  0
  6  1  1  0
  6  5  2  0
  7  6  1  0
  8  9  1  0
  8 17  2  0
  9 10  2  0
 10 11  1  0
 11 12  2  0
 12 13  1  0
 14 13  2  0
 15 14  1  0
 16 11  1  0
 16 15  2  0
 17 16  1  0
 18 19  2  0
 19 20  1  0
 21 20  2  0
 22 21  1  0
 23 22  2  0
 23 18  1  0
 25  1  1  0
 25 24  1  0
 26 25  2  0
 28 27  1  6
 28 24  1  0
 29 30  2  0
 29 28  1  0
 31 30  1  0
 32 31  2  0
 33 32  1  0
 33 34  2  0
 34 29  1  0
M  END
$$$$
