lig_106
     RDKit          3D

 35 39  0  0  0  0  0  0  0  0999 V2000
  -33.3640    6.9780    6.5330 C   0  0  0  0  0  0  0  0  0  0  0  0
  -32.9310    7.1430    5.1860 C   0  0  0  0  0  0  0  0  0  0  0  0
  -32.1390    8.2660    5.1790 C   0  0  0  0  0  0  0  0  0  0  0  0
  -32.1010    8.7090    6.4770 N   0  0  0  0  0  0  0  0  0  0  0  0
  -32.8590    7.9500    7.3090 N   0  0  0  0  0  0  0  0  0  0  0  0
  -35.9160    3.9180    8.1460 C   0  0  0  0  0  0  0  0  0  0  0  0
  -36.0880    5.2470    8.5280 C   0  0  0  0  0  0  0  0  0  0  0  0
  -35.2560    6.2480    8.0030 C   0  0  0  0  0  0  0  0  0  0  0  0
  -34.2420    5.9370    7.0870 C   0  0  0  0  0  0  0  0  0  0  0  0
  -34.0800    4.5970    6.7100 C   0  0  0  0  0  0  0  0  0  0  0  0
  -34.9090    3.5990    7.2350 C   0  0  0  0  0  0  0  0  0  0  0  0
  -36.6500    2.8510    8.5810 O   0  0  0  0  0  0  0  0  0  0  0  0
  -35.9450    1.7910    9.2350 C   0  0  0  0  0  0  0  0  0  0  0  0
  -35.4150    2.2870   10.5920 C   0  0  0  0  0  0  0  0  0  0  0  0
  -33.6320    1.5900   12.1710 C   0  0  0  0  0  0  0  0  0  0  0  0
  -33.9830    1.9530   10.7920 N   0  0  0  0  0  0  0  0  0  0  0  0
  -33.1730    3.0260   10.3320 C   0  0  0  0  0  0  0  0  0  0  0  0
  -33.4890    4.3240   10.7410 C   0  0  0  0  0  0  0  0  0  0  0  0
  -32.7140    5.3970   10.3080 C   0  0  0  0  0  0  0  0  0  0  0  0
  -31.6360    5.1560    9.4690 C   0  0  0  0  0  0  0  0  0  0  0  0
  -31.3890    3.8470    9.0990 C   0  0  0  0  0  0  0  0  0  0  0  0
  -32.1280    2.7910    9.5080 N   0  0  0  0  0  0  0  0  0  0  0  0
  -31.3050   10.1930    6.8970 S   0  0  0  0  0  0  0  0  0  0  0  0
  -31.7160   10.4540    8.2680 O   0  0  0  0  0  0  0  0  0  0  0  0
  -31.5720   11.1460    5.8360 O   0  0  0  0  0  0  0  0  0  0  0  0
  -29.5770    9.7630    6.8880 C   0  0  0  0  0  0  0  0  0  0  0  0
  -29.2400    8.5160    7.4440 C   0  0  0  0  0  0  0  0  0  0  0  0
  -27.9230    8.0800    7.4320 C   0  0  0  0  0  0  0  0  0  0  0  0
  -26.9370    8.8840    6.8680 C   0  0  0  0  0  0  0  0  0  0  0  0
  -27.2460   10.1410    6.3240 C   0  0  0  0  0  0  0  0  0  0  0  0
  -26.2140   10.9200    5.7740 C   0  0  0  0  0  0  0  0  0  0  0  0
  -26.4710   12.1780    5.2350 C   0  0  0  0  0  0  0  0  0  0  0  0
  -27.7630   12.6750    5.2480 C   0  0  0  0  0  0  0  0  0  0  0  0
  -28.8010   11.9130    5.7910 C   0  0  0  0  0  0  0  0  0  0  0  0
  -28.5830   10.6190    6.3330 C   0  0  0  0  0  0  0  0  0  0  0  0
  1  9  1  0
  1  5  2  0
  2  1  1  0
  3  2  2  0
  3  4  1  0
  4 23  1  0
  4  5  1  0
  6  7  1  0
  6 12  1  0
  8  7  2  0
  9  8  1  0
 10  9  2  0
 10 11  1  0
 11  6  2  0
 12 13  1  0
 13 14  1  0
 14 16  1  0
 16 15  1  0
 17 18  2  0
 17 16  1  0
 19 18  1  0
 20 19  2  0
 21 20  1  0
 21 22  2  0
 22 17  1  0
 23 24  2  0
 25 23  2  0
 26 23  1  0
 26 27  2  0
 28 27  1  0
 29 28  2  0
 30 35  1  0
 30 29  1  0
 31 30  2  0
 32 33  2  0
 32 31  1  0
 33 34  1  0
 34 35  2  0
 35 26  1  0
M  END
$$$$
