lig_287
     RDKit          3D

 25 27  0  0  0  0  0  0  0  0999 V2000
   -2.2910    6.1980   17.0550 C   0  0  0  0  0  0  0  0  0  0  0  0
   -2.4370    7.4860   16.5180 C   0  0  0  0  0  0  0  0  0  0  0  0
   -1.4190    8.4230   16.6640 C   0  0  0  0  0  0  0  0  0  0  0  0
   -0.2830    8.1170   17.3370 N   0  0  0  0  0  0  0  0  0  0  0  0
   -0.1240    6.8880   17.8640 C   0  0  0  0  0  0  0  0  0  0  0  0
   -1.1010    5.8970   17.7410 C   0  0  0  0  0  0  0  0  0  0  0  0
   -5.5810    4.3740   17.5200 C   0  0  0  0  0  0  0  0  0  0  0  0
   -4.5460    5.3000   17.6800 C   0  0  0  0  0  0  0  0  0  0  0  0
   -3.3860    5.2260   16.8850 C   0  0  0  0  0  0  0  0  0  0  0  0
   -3.2790    4.1980   15.9320 C   0  0  0  0  0  0  0  0  0  0  0  0
   -4.3020    3.2650   15.7730 C   0  0  0  0  0  0  0  0  0  0  0  0
   -5.4370    3.3620   16.5660 C   0  0  0  0  0  0  0  0  0  0  0  0
   -7.7060    5.3600   17.9300 C   0  0  0  0  0  0  0  0  0  0  0  0
   -6.7560    4.3430   18.2250 O   0  0  0  0  0  0  0  0  0  0  0  0
   -6.4280    2.4350   16.3900 O   0  0  0  0  0  0  0  0  0  0  0  0
   -1.4930    9.7980   16.1220 C   0  0  0  0  0  0  0  0  0  0  0  0
   -1.5740   10.9330   16.9510 C   0  0  0  0  0  0  0  0  0  0  0  0
   -1.6390   12.2240   16.4140 C   0  0  0  0  0  0  0  0  0  0  0  0
   -1.6290   12.4010   15.0380 C   0  0  0  0  0  0  0  0  0  0  0  0
   -1.5600   11.3060   14.1870 C   0  0  0  0  0  0  0  0  0  0  0  0
   -1.4950   10.0190   14.7290 C   0  0  0  0  0  0  0  0  0  0  0  0
   -1.6940   13.6740   14.5590 O   0  0  0  0  0  0  0  0  0  0  0  0
    1.0860    6.6800   18.5390 N   0  0  0  0  0  0  0  0  0  0  0  0
   -0.8830    4.6060   18.3200 C   0  0  0  0  0  0  0  0  0  0  0  0
   -0.6720    3.5740   18.8100 N   0  0  0  0  0  0  0  0  0  0  0  0
  1  6  2  0
  2  3  2  0
  2  1  1  0
  3  4  1  0
  4  5  2  0
  5 23  1  0
  6  5  1  0
  6 24  1  0
  7  8  1  0
  7 14  1  0
  9  1  1  0
  9  8  2  0
 10  9  1  0
 11 10  2  0
 11 12  1  0
 12  7  2  0
 13 14  1  0
 15 12  1  0
 16  3  1  0
 16 17  1  0
 18 17  2  0
 19 18  1  0
 20 21  1  0
 20 19  2  0
 21 16  2  0
 22 19  1  0
 24 25  3  0
M  END
$$$$
