lig_415
     RDKit          3D

 23 26  0  0  0  0  0  0  0  0999 V2000
    0.6960  -15.8840   12.4870 C   0  0  0  0  0  0  0  0  0  0  0  0
    1.9790  -16.2620   12.6700 C   0  0  0  0  0  0  0  0  0  0  0  0
    2.4080  -17.3900   13.5700 C   0  0  0  0  0  0  0  0  0  0  0  0
    1.3000  -18.2520   14.0030 N   0  0  0  0  0  0  0  0  0  0  0  0
    0.1690  -17.4300   14.4500 C   0  0  0  0  0  0  0  0  0  0  0  0
   -0.3810  -16.5950   13.2860 C   0  0  0  0  0  0  0  0  0  0  0  0
   -2.6510   -9.7120    9.6180 Cl  0  0  0  0  0  0  0  0  0  0  0  0
   -1.5680  -11.0510    9.6690 C   0  0  0  0  0  0  0  0  0  0  0  0
   -0.7130  -11.2820    8.5970 C   0  0  0  0  0  0  0  0  0  0  0  0
    0.1740  -12.3620    8.6140 C   0  0  0  0  0  0  0  0  0  0  0  0
    0.1740  -13.2000    9.7420 C   0  0  0  0  0  0  0  0  0  0  0  0
    1.1300  -14.5910   10.0580 S   0  0  0  0  0  0  0  0  0  0  0  0
    0.3720  -14.7910   11.6060 C   0  0  0  0  0  0  0  0  0  0  0  0
   -0.5600  -13.8910   11.8590 N   0  0  0  0  0  0  0  0  0  0  0  0
   -0.6760  -12.9800   10.8240 C   0  0  0  0  0  0  0  0  0  0  0  0
   -1.5630  -11.8870   10.7860 C   0  0  0  0  0  0  0  0  0  0  0  0
    1.7210  -19.1720   15.0730 C   0  0  0  0  0  0  0  0  0  0  0  0
    1.1290  -20.5600   14.9460 C   0  0  0  0  0  0  0  0  0  0  0  0
    0.0700  -20.9590   15.7780 C   0  0  0  0  0  0  0  0  0  0  0  0
   -0.4710  -22.2410   15.6700 C   0  0  0  0  0  0  0  0  0  0  0  0
    0.0400  -23.1380   14.7350 C   0  0  0  0  0  0  0  0  0  0  0  0
    1.0930  -22.7550   13.9060 C   0  0  0  0  0  0  0  0  0  0  0  0
    1.6370  -21.4730   14.0120 C   0  0  0  0  0  0  0  0  0  0  0  0
  1  2  2  0
  1  6  1  0
  2  3  1  0
  3  4  1  0
  4  5  1  0
  4 17  1  0
  6  5  1  0
  7  8  1  0
  8 16  2  0
  9 10  2  0
  9  8  1  0
 10 11  1  0
 11 12  1  0
 11 15  2  0
 12 13  1  0
 13 14  2  0
 13  1  1  0
 15 14  1  0
 16 15  1  0
 18 17  1  0
 18 19  2  0
 20 19  1  0
 21 20  2  0
 22 23  2  0
 22 21  1  0
 23 18  1  0
M  END
$$$$
