lig_046
     RDKit          3D

 32 37  0  0  1  0  0  0  0  0999 V2000
   17.9980   22.6860   14.3110 N   0  0  0  0  0  0  0  0  0  0  0  0
   19.0910   21.8790   14.4970 C   0  0  0  0  0  0  0  0  0  0  0  0
   19.5110   21.4350   13.2580 C   0  0  0  0  0  0  0  0  0  0  0  0
   18.5950   21.9300   12.2790 C   0  0  0  0  0  0  0  0  0  0  0  0
   18.4230   21.8200   10.8790 C   0  0  0  0  0  0  0  0  0  0  0  0
   17.3640   22.4720   10.3340 N   0  0  0  0  0  0  0  0  0  0  0  0
   16.5270   23.1620   11.1260 C   0  0  0  0  0  0  0  0  0  0  0  0
   16.5860   23.3090   12.4590 N   0  0  0  0  0  0  0  0  0  0  0  0
   17.6600   22.6870   12.9740 C   0  0  0  0  0  0  0  0  0  0  0  0
   17.1870   23.6520   17.7690 C   0  0  2  0  0  0  0  0  0  0  0  0
   17.4440   25.0800   17.3210 C   0  0  0  0  0  0  0  0  0  0  0  0
   17.9820   23.9250   16.5150 C   0  0  2  0  0  0  0  0  0  0  0  0
   17.2110   23.4010   15.3220 C   0  0  2  0  0  0  0  0  0  0  0  0
   16.1330   22.4600   15.9230 C   0  0  1  0  0  0  0  0  0  0  0  0
   15.8960   22.9720   17.3650 C   0  0  2  0  0  0  0  0  0  0  0  0
   14.8960   22.4960   15.1990 O   0  0  0  0  0  0  0  0  0  0  0  0
   14.8240   23.9140   17.3890 O   0  0  0  0  0  0  0  0  0  0  0  0
   17.8210   23.1280   19.0260 C   0  0  0  0  0  0  0  0  0  0  0  0
   16.8540   22.7760   20.0060 O   0  0  0  0  0  0  0  0  0  0  0  0
   20.6830   20.6000   13.0950 C   0  0  0  0  0  0  0  0  0  0  0  0
   21.8770   21.1590   12.6280 C   0  0  0  0  0  0  0  0  0  0  0  0
   22.9990   20.3510   12.4340 C   0  0  0  0  0  0  0  0  0  0  0  0
   22.9300   18.9850   12.7080 C   0  0  0  0  0  0  0  0  0  0  0  0
   21.7410   18.4250   13.1760 C   0  0  0  0  0  0  0  0  0  0  0  0
   20.6180   19.2310   13.3700 C   0  0  0  0  0  0  0  0  0  0  0  0
   19.2970   21.0510   10.0970 N   0  0  0  0  0  0  0  0  0  0  0  0
   19.5440   19.6710   10.0040 C   0  0  0  0  0  0  0  0  0  0  0  0
   20.8080   19.2490    9.5540 C   0  0  0  0  0  0  0  0  0  0  0  0
   21.1260   17.8920    9.4360 C   0  0  0  0  0  0  0  0  0  0  0  0
   20.1810   16.9280    9.7660 C   0  0  0  0  0  0  0  0  0  0  0  0
   18.9240   17.3230   10.2120 C   0  0  0  0  0  0  0  0  0  0  0  0
   18.6110   18.6820   10.3280 C   0  0  0  0  0  0  0  0  0  0  0  0
  1  2  1  0
  3  2  2  0
  4  9  1  0
  4  3  1  0
  5  4  2  0
  6  5  1  0
  6  7  2  0
  7  8  1  0
  8  9  2  0
  9  1  1  0
 10 18  1  1
 11 10  1  0
 12 11  1  6
 12 10  1  0
 13  1  1  6
 13 14  1  0
 13 12  1  0
 14 16  1  6
 14 15  1  0
 15 17  1  6
 15 10  1  0
 18 19  1  0
 20  3  1  0
 20 25  1  0
 21 20  2  0
 22 21  1  0
 22 23  2  0
 23 24  1  0
 24 25  2  0
 26  5  1  0
 27 26  1  0
 27 32  1  0
 28 27  2  0
 29 28  1  0
 29 30  2  0
 30 31  1  0
 31 32  2  0
M  END
$$$$
