lig_447
     RDKit          3D

 37 41  0  0  0  0  0  0  0  0999 V2000
   -1.1910   12.6120   14.9890 C   0  0  0  0  0  0  0  0  0  0  0  0
   -1.2340   11.5300   14.1140 C   0  0  0  0  0  0  0  0  0  0  0  0
   -1.4120   10.2310   14.6080 C   0  0  0  0  0  0  0  0  0  0  0  0
   -1.5530    9.9940   15.9800 C   0  0  0  0  0  0  0  0  0  0  0  0
   -1.5290   11.0900   16.8520 C   0  0  0  0  0  0  0  0  0  0  0  0
   -1.3530   12.3860   16.3570 C   0  0  0  0  0  0  0  0  0  0  0  0
   -1.7370    8.6300   16.4810 C   0  0  0  0  0  0  0  0  0  0  0  0
   -2.8580    7.8070   16.4730 C   0  0  0  0  0  0  0  0  0  0  0  0
   -2.4970    6.5790   17.0710 C   0  0  0  0  0  0  0  0  0  0  0  0
   -1.1840    6.6650   17.4250 C   0  0  0  0  0  0  0  0  0  0  0  0
   -0.7210    7.9000   17.0690 N   0  0  0  0  0  0  0  0  0  0  0  0
   -0.4570    5.6140   18.0570 C   0  0  0  0  0  0  0  0  0  0  0  0
    0.7270    5.7270   18.3570 O   0  0  0  0  0  0  0  0  0  0  0  0
   -1.2330    4.4780   18.2840 N   0  0  0  0  0  0  0  0  0  0  0  0
   -0.6060    3.3380   18.9230 C   0  0  0  0  0  0  0  0  0  0  0  0
   -2.5910    4.3330   17.9420 C   0  0  0  0  0  0  0  0  0  0  0  0
   -3.1970    3.2840   18.1800 O   0  0  0  0  0  0  0  0  0  0  0  0
   -3.2180    5.4230   17.3220 N   0  0  0  0  0  0  0  0  0  0  0  0
   -4.6210    5.3260   16.9520 C   0  0  0  0  0  0  0  0  0  0  0  0
   -1.0310   13.9240   14.6400 O   0  0  0  0  0  0  0  0  0  0  0  0
   -1.7310   14.8980   15.4000 C   0  0  0  0  0  0  0  0  0  0  0  0
   -5.1610   15.6780   11.5850 N   0  0  0  0  0  0  0  0  0  0  0  0
   -4.1550   16.7680   11.5690 C   0  0  0  0  0  0  0  0  0  0  0  0
   -3.7050   17.1740   12.9870 C   0  0  0  0  0  0  0  0  0  0  0  0
   -3.2740   16.0270   13.7960 N   0  0  0  0  0  0  0  0  0  0  0  0
   -2.1740   16.1610   14.6360 C   0  0  0  0  0  0  0  0  0  0  0  0
   -1.5910   17.2380   14.7670 O   0  0  0  0  0  0  0  0  0  0  0  0
   -4.0210   14.7800   13.5910 C   0  0  0  0  0  0  0  0  0  0  0  0
   -5.3650   14.9900   12.8670 C   0  0  0  0  0  0  0  0  0  0  0  0
   -6.3730   14.7660    9.6360 C   0  0  0  0  0  0  0  0  0  0  0  0
   -7.3690   14.8740    8.6560 C   0  0  0  0  0  0  0  0  0  0  0  0
   -8.2550   15.9430    8.6820 C   0  0  0  0  0  0  0  0  0  0  0  0
   -8.1380   16.9020    9.6810 C   0  0  0  0  0  0  0  0  0  0  0  0
   -7.1230   16.8020   10.6430 C   0  0  0  0  0  0  0  0  0  0  0  0
   -6.1910   15.7480   10.6400 C   0  0  0  0  0  0  0  0  0  0  0  0
   -6.3710   12.5020    9.2780 C   0  0  0  0  0  0  0  0  0  0  0  0
   -5.5680   13.6510    9.5570 O   0  0  0  0  0  0  0  0  0  0  0  0
  1  6  2  0
  2  3  2  0
  2  1  1  0
  3  4  1  0
  4  7  1  0
  4  5  2  0
  6  5  1  0
  7 11  1  0
  8  7  2  0
  8  9  1  0
  9 18  1  0
  9 10  2  0
 10 12  1  0
 11 10  1  0
 12 14  1  0
 12 13  2  0
 14 15  1  0
 16 17  2  0
 16 14  1  0
 18 16  1  0
 19 18  1  0
 20  1  1  0
 20 21  1  0
 22 29  1  0
 23 22  1  0
 23 24  1  0
 24 25  1  0
 25 26  1  0
 26 27  2  0
 26 21  1  0
 28 25  1  0
 29 28  1  0
 30 35  1  0
 31 32  1  0
 31 30  2  0
 32 33  2  0
 33 34  1  0
 35 34  2  0
 35 22  1  0
 36 37  1  0
 37 30  1  0
M  END
$$$$
