lig_262
     RDKit          3D

 27 30  0  0  0  0  0  0  0  0999 V2000
    0.5230    5.6850   18.3250 C   0  0  0  0  0  0  0  0  0  0  0  0
   -0.7780    5.5130   17.7280 N   0  0  0  0  0  0  0  0  0  0  0  0
   -1.5070    6.5720   17.2280 C   0  0  0  0  0  0  0  0  0  0  0  0
   -0.9920    7.7420   16.9510 N   0  0  0  0  0  0  0  0  0  0  0  0
   -1.8400    8.7160   16.4460 C   0  0  0  0  0  0  0  0  0  0  0  0
   -3.1630    8.5720   16.2220 C   0  0  0  0  0  0  0  0  0  0  0  0
   -3.7390    7.3180   16.5290 C   0  0  0  0  0  0  0  0  0  0  0  0
   -4.9540    6.8140   16.4630 N   0  0  0  0  0  0  0  0  0  0  0  0
   -4.7860    5.5290   16.9370 C   0  0  0  0  0  0  0  0  0  0  0  0
   -3.5310    5.2160   17.3020 N   0  0  0  0  0  0  0  0  0  0  0  0
   -2.8850    6.3710   17.0160 N   0  0  0  0  0  0  0  0  0  0  0  0
   -5.9780    4.5230   17.0440 C   0  0  0  0  0  0  0  0  0  0  0  0
   -7.1420    4.7180   17.7630 C   0  0  0  0  0  0  0  0  0  0  0  0
   -7.9350    3.5590   17.5770 C   0  0  0  0  0  0  0  0  0  0  0  0
   -7.2090    2.7290   16.7580 C   0  0  0  0  0  0  0  0  0  0  0  0
   -6.0240    3.3020   16.4280 O   0  0  0  0  0  0  0  0  0  0  0  0
   -3.9420    9.7200   15.6690 C   0  0  0  0  0  0  0  0  0  0  0  0
   -4.9280    9.5430   14.9580 O   0  0  0  0  0  0  0  0  0  0  0  0
   -3.4770   10.9630   16.0180 N   0  0  0  0  0  0  0  0  0  0  0  0
   -4.2020   12.1730   15.7150 C   0  0  0  0  0  0  0  0  0  0  0  0
   -3.3960   13.3860   16.0980 C   0  0  0  0  0  0  0  0  0  0  0  0
   -2.6890   13.4230   17.3070 C   0  0  0  0  0  0  0  0  0  0  0  0
   -1.9630   14.5610   17.6690 C   0  0  0  0  0  0  0  0  0  0  0  0
   -1.9300   15.6800   16.8280 C   0  0  0  0  0  0  0  0  0  0  0  0
   -1.1790   16.9130   17.2340 C   0  0  0  0  0  0  0  0  0  0  0  0
   -2.6580   15.6540   15.6340 C   0  0  0  0  0  0  0  0  0  0  0  0
   -3.3840   14.5170   15.2720 C   0  0  0  0  0  0  0  0  0  0  0  0
  2  1  1  0
  3  2  1  0
  4  3  2  0
  5  4  1  0
  6  5  2  0
  6  7  1  0
  7 11  1  0
  8  7  2  0
  8  9  1  0
  9 12  1  0
  9 10  2  0
 11  3  1  0
 11 10  1  0
 12 13  2  0
 14 13  1  0
 15 14  2  0
 16 15  1  0
 16 12  1  0
 17 19  1  0
 17  6  1  0
 18 17  2  0
 20 19  1  0
 20 21  1  0
 21 22  1  0
 22 23  2  0
 24 25  1  0
 24 23  1  0
 26 24  2  0
 27 26  1  0
 27 21  2  0
M  END
$$$$
