lig_279
     RDKit          3D

 31 35  0  0  0  0  0  0  0  0999 V2000
   -2.2600    6.1490   16.9370 C   0  0  0  0  0  0  0  0  0  0  0  0
   -2.5690    7.3820   16.4020 C   0  0  0  0  0  0  0  0  0  0  0  0
   -1.6120    8.3610   16.5470 C   0  0  0  0  0  0  0  0  0  0  0  0
   -0.4400    8.1370   17.1740 N   0  0  0  0  0  0  0  0  0  0  0  0
   -0.2370    6.9180   17.6670 C   0  0  0  0  0  0  0  0  0  0  0  0
    0.9640    6.6800   18.3000 N   0  0  0  0  0  0  0  0  0  0  0  0
   -1.0910    5.9010   17.5570 N   0  0  0  0  0  0  0  0  0  0  0  0
   -5.1430    6.3630   17.7260 C   0  0  0  0  0  0  0  0  0  0  0  0
   -4.5530    5.0800   17.1830 C   0  0  0  0  0  0  0  0  0  0  0  0
   -5.3770    3.9470   16.9840 C   0  0  0  0  0  0  0  0  0  0  0  0
   -4.8320    2.7480   16.5020 C   0  0  0  0  0  0  0  0  0  0  0  0
   -3.4780    2.6610   16.2060 C   0  0  0  0  0  0  0  0  0  0  0  0
   -2.6640    3.7780   16.3700 C   0  0  0  0  0  0  0  0  0  0  0  0
   -3.1790    5.0040   16.8370 C   0  0  0  0  0  0  0  0  0  0  0  0
   -6.7880    3.9800   17.2570 C   0  0  0  0  0  0  0  0  0  0  0  0
   -7.9250    4.0080   17.4880 N   0  0  0  0  0  0  0  0  0  0  0  0
   -1.8020    9.7030   16.0200 C   0  0  0  0  0  0  0  0  0  0  0  0
   -0.8490   10.5170   15.4450 C   0  0  0  0  0  0  0  0  0  0  0  0
   -1.5320   11.6600   15.1370 N   0  0  0  0  0  0  0  0  0  0  0  0
   -2.8300   11.5600   15.4740 N   0  0  0  0  0  0  0  0  0  0  0  0
   -3.0080   10.3630   16.0170 N   0  0  0  0  0  0  0  0  0  0  0  0
   -1.0310   12.8540   14.4850 C   0  0  0  0  0  0  0  0  0  0  0  0
   -0.3270   13.7300   15.4620 C   0  0  0  0  0  0  0  0  0  0  0  0
    1.0040   13.6450   15.6170 N   0  0  0  0  0  0  0  0  0  0  0  0
    1.2810   14.5820   16.5430 N   0  0  0  0  0  0  0  0  0  0  0  0
    0.1840   15.2590   17.0020 C   0  0  0  0  0  0  0  0  0  0  0  0
    0.0530   16.2800   17.9490 C   0  0  0  0  0  0  0  0  0  0  0  0
   -1.2390   16.7590   18.1930 C   0  0  0  0  0  0  0  0  0  0  0  0
   -2.3410   16.2370   17.5170 C   0  0  0  0  0  0  0  0  0  0  0  0
   -2.1870   15.2160   16.5710 C   0  0  0  0  0  0  0  0  0  0  0  0
   -0.8950   14.7220   16.3120 C   0  0  0  0  0  0  0  0  0  0  0  0
  1  7  2  0
  2  3  2  0
  2  1  1  0
  3  4  1  0
  4  5  2  0
  5  6  1  0
  7  5  1  0
  9  8  1  0
 10  9  2  0
 10 15  1  0
 11 10  1  0
 12 13  1  0
 12 11  2  0
 13 14  2  0
 14  1  1  0
 14  9  1  0
 15 16  3  0
 17  3  1  0
 18 17  2  0
 19 18  1  0
 19 20  1  0
 20 21  2  0
 21 17  1  0
 22 19  1  0
 22 23  1  0
 23 24  2  0
 23 31  1  0
 24 25  1  0
 25 26  1  0
 26 27  2  0
 27 28  1  0
 29 28  2  0
 30 29  1  0
 31 30  2  0
 31 26  1  0
M  END
$$$$
