lig_022
     RDKit          3D

 38 43  0  0  1  0  0  0  0  0999 V2000
    0.1960  -17.6180   12.0270 C   0  0  1  0  0  0  0  0  0  0  0  0
   -0.2560  -18.9330   11.3830 C   0  0  0  0  0  0  0  0  0  0  0  0
   -0.2330  -20.0890   12.3820 C   0  0  0  0  0  0  0  0  0  0  0  0
    1.1540  -20.2450   13.0220 C   0  0  1  0  0  0  0  0  0  0  0  0
    1.5920  -18.9300   13.6860 C   0  0  0  0  0  0  0  0  0  0  0  0
    1.5710  -17.7710   12.6900 C   0  0  0  0  0  0  0  0  0  0  0  0
    0.1750  -15.2260   11.3940 C   0  0  0  0  0  0  0  0  0  0  0  0
    0.0390  -14.8350   12.5470 O   0  0  0  0  0  0  0  0  0  0  0  0
    0.2180  -16.5560   11.0320 N   0  0  0  0  0  0  0  0  0  0  0  0
   -2.4350  -10.2510   10.8310 C   0  0  0  0  0  0  0  0  0  0  0  0
   -1.5130  -11.2520   10.3500 N   0  0  0  0  0  0  0  0  0  0  0  0
   -1.2030  -12.4330   10.9590 C   0  0  0  0  0  0  0  0  0  0  0  0
   -0.2820  -13.0300   10.1370 C   0  0  0  0  0  0  0  0  0  0  0  0
    0.3820  -14.2500   10.3140 C   0  0  0  0  0  0  0  0  0  0  0  0
    1.3430  -14.4850    9.3030 C   0  0  0  0  0  0  0  0  0  0  0  0
    1.5790  -13.5950    8.2120 C   0  0  0  0  0  0  0  0  0  0  0  0
    0.8820  -12.3810    8.0370 C   0  0  0  0  0  0  0  0  0  0  0  0
   -0.0600  -12.1050    9.0440 C   0  0  0  0  0  0  0  0  0  0  0  0
   -0.8600  -11.0380    9.1920 N   0  0  0  0  0  0  0  0  0  0  0  0
    1.2390  -21.4550   13.9770 C   0  0  0  0  0  0  0  0  0  0  0  0
    0.4760  -22.7120   13.5230 C   0  0  0  0  0  0  0  0  0  0  0  0
   -0.3430  -23.3550   14.5540 N   0  0  0  0  0  0  0  0  0  0  0  0
   -0.2930  -22.7020   15.8590 C   0  0  0  0  0  0  0  0  0  0  0  0
   -1.3190  -23.3060   16.8160 C   0  0  0  0  0  0  0  0  0  0  0  0
   -2.7500  -23.0690   16.3020 C   0  0  0  0  0  0  0  0  0  0  0  0
   -2.8080  -23.0020   14.7640 C   0  0  0  0  0  0  0  0  0  0  0  0
   -1.6720  -23.7880   14.1130 C   0  0  0  0  0  0  0  0  0  0  0  0
   -3.7160  -24.0690   16.8810 C   0  0  0  0  0  0  0  0  0  0  0  0
   -3.7380  -25.3270   16.4210 N   0  0  0  0  0  0  0  0  0  0  0  0
   -4.7180  -25.9800   17.1390 O   0  0  0  0  0  0  0  0  0  0  0  0
   -5.2740  -25.1210   18.0220 C   0  0  0  0  0  0  0  0  0  0  0  0
   -4.6780  -23.8860   17.9150 C   0  0  0  0  0  0  0  0  0  0  0  0
   -4.9850  -22.6720   18.7080 C   0  0  0  0  0  0  0  0  0  0  0  0
   -3.8880  -22.2920   19.4250 F   0  0  0  0  0  0  0  0  0  0  0  0
   -5.9450  -22.9410   19.6390 F   0  0  0  0  0  0  0  0  0  0  0  0
   -5.4640  -21.4970   17.8960 C   0  0  0  0  0  0  0  0  0  0  0  0
   -5.0960  -20.0770   18.2630 C   0  0  0  0  0  0  0  0  0  0  0  0
   -6.5150  -20.5500   18.4260 C   0  0  0  0  0  0  0  0  0  0  0  0
  1  9  1  6
  1  6  1  0
  2  1  1  0
  2  3  1  0
  3  4  1  0
  4  5  1  0
  4 20  1  1
  6  5  1  0
  7  8  2  0
  9  7  1  0
 11 10  1  0
 11 12  1  0
 13 14  1  0
 13 12  2  0
 14  7  1  0
 15 14  2  0
 16 15  1  0
 17 16  2  0
 17 18  1  0
 18 19  2  0
 18 13  1  0
 19 11  1  0
 21 20  1  0
 21 22  1  0
 22 23  1  0
 23 24  1  0
 25 24  1  0
 25 28  1  0
 26 25  1  0
 27 22  1  0
 27 26  1  0
 28 32  1  0
 29 28  2  0
 29 30  1  0
 30 31  1  0
 32 31  2  0
 32 33  1  0
 33 34  1  0
 33 35  1  0
 36 37  1  0
 36 38  1  0
 36 33  1  0
 37 38  1  0
M  END
$$$$
