lig_418
     RDKit          3D

 26 29  0  0  0  0  0  0  0  0999 V2000
    1.2950  -18.3320   12.8130 C   0  0  0  0  0  0  0  0  0  0  0  0
    0.1430  -18.2110   12.0370 C   0  0  0  0  0  0  0  0  0  0  0  0
   -0.2570  -16.9640   11.5480 C   0  0  0  0  0  0  0  0  0  0  0  0
    0.4880  -15.8090   11.8190 C   0  0  0  0  0  0  0  0  0  0  0  0
    1.6440  -15.9400   12.6040 C   0  0  0  0  0  0  0  0  0  0  0  0
    2.0440  -17.1910   13.0960 C   0  0  0  0  0  0  0  0  0  0  0  0
    0.0320  -14.5200   11.2820 C   0  0  0  0  0  0  0  0  0  0  0  0
    0.3230  -14.0360   10.0850 N   0  0  0  0  0  0  0  0  0  0  0  0
   -0.2980  -12.8160   10.0000 C   0  0  0  0  0  0  0  0  0  0  0  0
   -0.3200  -11.8900    8.9480 C   0  0  0  0  0  0  0  0  0  0  0  0
   -1.0390  -10.6990    9.1170 C   0  0  0  0  0  0  0  0  0  0  0  0
   -1.7210  -10.4390   10.3080 C   0  0  0  0  0  0  0  0  0  0  0  0
   -1.7100  -11.3520   11.3690 C   0  0  0  0  0  0  0  0  0  0  0  0
   -0.9870  -12.5300   11.1710 C   0  0  0  0  0  0  0  0  0  0  0  0
   -0.7580  -13.6220   11.9670 N   0  0  0  0  0  0  0  0  0  0  0  0
    1.5730  -19.6040   13.2280 O   0  0  0  0  0  0  0  0  0  0  0  0
    1.5590  -20.6320   12.2380 C   0  0  0  0  0  0  0  0  0  0  0  0
    0.7280  -21.7950   12.7800 C   0  0  0  0  0  0  0  0  0  0  0  0
   -0.5090  -22.0370   11.9100 C   0  0  0  0  0  0  0  0  0  0  0  0
   -2.9540  -24.8720   15.8640 C   0  0  0  0  0  0  0  0  0  0  0  0
   -1.9420  -23.9770   15.3100 N   0  0  0  0  0  0  0  0  0  0  0  0
   -2.5170  -22.6380   15.0640 C   0  0  0  0  0  0  0  0  0  0  0  0
   -1.6950  -21.8250   14.0410 C   0  0  0  0  0  0  0  0  0  0  0  0
   -1.6920  -22.4320   12.6900 N   0  0  0  0  0  0  0  0  0  0  0  0
   -1.8300  -23.9020   12.7700 C   0  0  0  0  0  0  0  0  0  0  0  0
   -1.3240  -24.5300   14.0880 C   0  0  0  0  0  0  0  0  0  0  0  0
  1  6  2  0
  1 16  1  0
  2  1  1  0
  3  4  1  0
  3  2  2  0
  4  5  2  0
  5  6  1  0
  7  4  1  0
  7 15  1  0
  8  7  2  0
  9  8  1  0
  9 14  1  0
 10 11  1  0
 10  9  2  0
 11 12  2  0
 12 13  1  0
 14 13  2  0
 14 15  1  0
 17 18  1  0
 17 16  1  0
 19 24  1  0
 19 18  1  0
 21 20  1  0
 22 21  1  0
 23 22  1  0
 24 25  1  0
 24 23  1  0
 25 26  1  0
 26 21  1  0
M  END
$$$$
