lig_347
     RDKit          3D

 28 31  0  0  0  0  0  0  0  0999 V2000
    0.2780  -20.5650   11.5510 N   0  0  0  0  0  0  0  0  0  0  0  0
    1.5440  -20.2810   12.2620 C   0  0  0  0  0  0  0  0  0  0  0  0
    1.6140  -18.9320   13.0120 C   0  0  0  0  0  0  0  0  0  0  0  0
    0.9550  -17.8400   12.3020 N   0  0  0  0  0  0  0  0  0  0  0  0
    1.2990  -16.5360   12.6710 C   0  0  0  0  0  0  0  0  0  0  0  0
    2.0730  -16.3200   13.6000 O   0  0  0  0  0  0  0  0  0  0  0  0
   -0.3430  -18.1700   11.6990 C   0  0  0  0  0  0  0  0  0  0  0  0
   -0.7820  -19.6270   11.9490 C   0  0  0  0  0  0  0  0  0  0  0  0
    0.7160  -15.4510   11.9080 C   0  0  0  0  0  0  0  0  0  0  0  0
   -0.2350  -14.5320   12.3200 C   0  0  0  0  0  0  0  0  0  0  0  0
   -0.4890  -13.6350   11.2490 C   0  0  0  0  0  0  0  0  0  0  0  0
   -1.3430  -12.5400   11.0660 C   0  0  0  0  0  0  0  0  0  0  0  0
   -1.3500  -11.8610    9.8910 N   0  0  0  0  0  0  0  0  0  0  0  0
   -0.5130  -12.2550    8.9060 C   0  0  0  0  0  0  0  0  0  0  0  0
    0.3730  -13.3180    8.9910 C   0  0  0  0  0  0  0  0  0  0  0  0
    0.3550  -14.0030   10.2030 C   0  0  0  0  0  0  0  0  0  0  0  0
    1.0910  -15.0790   10.6370 N   0  0  0  0  0  0  0  0  0  0  0  0
   -0.1560  -21.9640   11.6960 C   0  0  0  0  0  0  0  0  0  0  0  0
   -1.1950  -22.1720   12.8120 C   0  0  0  0  0  0  0  0  0  0  0  0
   -0.7750  -23.2080   13.7050 O   0  0  0  0  0  0  0  0  0  0  0  0
   -0.6540  -21.1560   16.6980 C   0  0  0  0  0  0  0  0  0  0  0  0
   -0.6490  -22.1050   17.7190 C   0  0  0  0  0  0  0  0  0  0  0  0
   -0.6880  -23.4660   17.4060 C   0  0  0  0  0  0  0  0  0  0  0  0
   -0.7290  -23.8870   16.0730 C   0  0  0  0  0  0  0  0  0  0  0  0
   -0.7310  -22.9470   15.0450 C   0  0  0  0  0  0  0  0  0  0  0  0
   -0.6960  -21.5870   15.3680 C   0  0  0  0  0  0  0  0  0  0  0  0
   -0.7710  -19.0060   15.6900 C   0  0  0  0  0  0  0  0  0  0  0  0
   -0.6220  -19.7990   16.8610 O   0  0  0  0  0  0  0  0  0  0  0  0
  1 18  1  0
  1  8  1  0
  1  2  1  0
  2  3  1  0
  4  5  1  0
  4  3  1  0
  5  6  2  0
  7  8  1  0
  7  4  1  0
  9 10  2  0
  9  5  1  0
 11 10  1  0
 12 11  1  0
 13 12  2  0
 14 15  2  0
 14 13  1  0
 15 16  1  0
 16 17  1  0
 16 11  2  0
 17  9  1  0
 18 19  1  0
 19 20  1  0
 20 25  1  0
 21 28  1  0
 21 22  1  0
 23 22  2  0
 24 23  1  0
 25 26  1  0
 25 24  2  0
 26 21  2  0
 27 28  1  0
M  END
$$$$
