lig_112
     RDKit          3D

 36 39  0  0  0  0  0  0  0  0999 V2000
  -31.6910    1.6070   10.0060 N   0  0  0  0  0  0  0  0  0  0  0  0
  -32.7680    2.3460    9.5500 C   0  0  0  0  0  0  0  0  0  0  0  0
  -33.8280    1.8500    9.1920 O   0  0  0  0  0  0  0  0  0  0  0  0
  -32.4690    3.7010    9.5770 N   0  0  0  0  0  0  0  0  0  0  0  0
  -31.7600    0.1590    9.9580 C   0  0  0  0  0  0  0  0  0  0  0  0
  -30.3810   -0.4970    9.9690 C   0  0  0  0  0  0  0  0  0  0  0  0
  -29.9830   -0.9870   11.3710 C   0  0  0  0  0  0  0  0  0  0  0  0
  -26.7640    1.7470   11.3190 N   0  0  0  0  0  0  0  0  0  0  0  0
  -26.9310    0.5260   10.4870 C   0  0  0  0  0  0  0  0  0  0  0  0
  -27.5290   -0.6450   11.3040 C   0  0  0  0  0  0  0  0  0  0  0  0
  -28.8100   -0.3540   11.9770 N   0  0  0  0  0  0  0  0  0  0  0  0
  -28.9860    1.0860   12.2490 C   0  0  0  0  0  0  0  0  0  0  0  0
  -27.6500    1.8170   12.5000 C   0  0  0  0  0  0  0  0  0  0  0  0
  -25.3670    3.6370   10.5980 C   0  0  0  0  0  0  0  0  0  0  0  0
  -25.1190    4.7150    9.7410 C   0  0  0  0  0  0  0  0  0  0  0  0
  -26.0800    5.1100    8.8180 C   0  0  0  0  0  0  0  0  0  0  0  0
  -27.2840    4.4180    8.7450 C   0  0  0  0  0  0  0  0  0  0  0  0
  -27.5200    3.3210    9.5840 C   0  0  0  0  0  0  0  0  0  0  0  0
  -26.5670    2.8920   10.5240 C   0  0  0  0  0  0  0  0  0  0  0  0
  -23.3200    2.5820   10.8710 C   0  0  0  0  0  0  0  0  0  0  0  0
  -24.3520    3.3550   11.4850 O   0  0  0  0  0  0  0  0  0  0  0  0
  -33.5030    4.6270    9.2700 N   0  0  0  0  0  0  0  0  0  0  0  0
  -33.3310    5.3290    8.0650 C   0  0  0  0  0  0  0  0  0  0  0  0
  -32.3640    6.3360    7.9000 C   0  0  0  0  0  0  0  0  0  0  0  0
  -32.2100    7.0300    6.6920 C   0  0  0  0  0  0  0  0  0  0  0  0
  -33.0350    6.7480    5.6100 C   0  0  0  0  0  0  0  0  0  0  0  0
  -34.0190    5.7770    5.7430 C   0  0  0  0  0  0  0  0  0  0  0  0
  -34.1640    5.0880    6.9540 C   0  0  0  0  0  0  0  0  0  0  0  0
  -34.2750    5.1350   10.4180 C   0  0  0  0  0  0  0  0  0  0  0  0
  -35.7650    4.8920   10.2560 C   0  0  0  0  0  0  0  0  0  0  0  0
  -36.3500    3.6790   10.6570 C   0  0  0  0  0  0  0  0  0  0  0  0
  -37.7170    3.4630   10.4860 C   0  0  0  0  0  0  0  0  0  0  0  0
  -38.5040    4.4570    9.9120 C   0  0  0  0  0  0  0  0  0  0  0  0
  -39.8160    4.2450    9.7470 F   0  0  0  0  0  0  0  0  0  0  0  0
  -37.9480    5.6620    9.5040 C   0  0  0  0  0  0  0  0  0  0  0  0
  -36.5800    5.8810    9.6750 C   0  0  0  0  0  0  0  0  0  0  0  0
  2  4  1  0
  2  1  1  0
  3  2  2  0
  5  6  1  0
  5  1  1  0
  6  7  1  0
  7 11  1  0
  8 13  1  0
  9 10  1  0
  9  8  1  0
 10 11  1  0
 11 12  1  0
 12 13  1  0
 14 21  1  0
 15 14  2  0
 16 15  1  0
 17 16  2  0
 17 18  1  0
 18 19  2  0
 19 14  1  0
 19  8  1  0
 20 21  1  0
 22  4  1  0
 22 29  1  0
 23 22  1  0
 24 23  2  0
 25 24  1  0
 26 27  1  0
 26 25  2  0
 27 28  2  0
 28 23  1  0
 30 29  1  0
 30 31  1  0
 32 31  2  0
 33 32  1  0
 34 33  1  0
 35 36  1  0
 35 33  2  0
 36 30  2  0
M  END
$$$$
