lig_374
     RDKit          3D

 24 27  0  0  0  0  0  0  0  0999 V2000
    1.0230    4.5330   19.0010 C   0  0  0  0  0  0  0  0  0  0  0  0
   -0.0470    5.3160   18.3010 C   0  0  0  0  0  0  0  0  0  0  0  0
    0.2440    6.5390   17.7290 C   0  0  0  0  0  0  0  0  0  0  0  0
   -0.7850    7.2200   17.0930 C   0  0  0  0  0  0  0  0  0  0  0  0
   -2.0850    6.6690   17.0340 C   0  0  0  0  0  0  0  0  0  0  0  0
   -3.1880    7.3000   16.3920 C   0  0  0  0  0  0  0  0  0  0  0  0
   -4.4310    6.6800   16.5030 C   0  0  0  0  0  0  0  0  0  0  0  0
   -4.5430    5.4510   17.1440 C   0  0  0  0  0  0  0  0  0  0  0  0
   -3.4750    4.8430   17.7030 N   0  0  0  0  0  0  0  0  0  0  0  0
   -2.2820    5.4270   17.6660 C   0  0  0  0  0  0  0  0  0  0  0  0
   -1.2850    4.7770   18.2690 N   0  0  0  0  0  0  0  0  0  0  0  0
   -5.8270    4.7270   17.2740 C   0  0  0  0  0  0  0  0  0  0  0  0
   -6.0160    3.4840   16.6400 C   0  0  0  0  0  0  0  0  0  0  0  0
   -7.2160    2.7780   16.7540 C   0  0  0  0  0  0  0  0  0  0  0  0
   -8.2640    3.3030   17.5020 C   0  0  0  0  0  0  0  0  0  0  0  0
   -8.1130    4.5360   18.1300 C   0  0  0  0  0  0  0  0  0  0  0  0
   -6.9090    5.2400   18.0160 C   0  0  0  0  0  0  0  0  0  0  0  0
   -3.0180    8.5520   15.7720 N   0  0  0  0  0  0  0  0  0  0  0  0
   -3.4940    9.8070   16.3630 C   0  0  0  0  0  0  0  0  0  0  0  0
   -4.7810   10.2390   15.6380 C   0  0  0  0  0  0  0  0  0  0  0  0
   -5.2840   11.5920   16.1360 C   0  0  0  0  0  0  0  0  0  0  0  0
   -4.2090   12.6680   16.0190 C   0  0  0  0  0  0  0  0  0  0  0  0
   -2.9180   12.2490   16.7150 C   0  0  0  0  0  0  0  0  0  0  0  0
   -2.4210   10.8960   16.2130 C   0  0  0  0  0  0  0  0  0  0  0  0
  2  1  1  0
  3  2  1  0
  4  3  2  0
  5  4  1  0
  5 10  1  0
  6  7  1  0
  6  5  2  0
  7  8  2  0
  8 12  1  0
  8  9  1  0
 10  9  2  0
 10 11  1  0
 11  2  2  0
 12 17  1  0
 13 14  1  0
 13 12  2  0
 14 15  2  0
 15 16  1  0
 17 16  2  0
 18 19  1  0
 18  6  1  0
 20 21  1  0
 20 19  1  0
 22 21  1  0
 22 23  1  0
 24 19  1  0
 24 23  1  0
M  END
$$$$
