lig_384
     RDKit          3D

 39 43  0  0  0  0  0  0  0  0999 V2000
   -3.9030    9.3180   16.0250 C   0  0  0  0  0  0  0  0  0  0  0  0
   -2.7780   10.0650   15.6530 C   0  0  0  0  0  0  0  0  0  0  0  0
   -2.8620   11.4510   15.4660 C   0  0  0  0  0  0  0  0  0  0  0  0
   -4.0740   12.1120   15.6540 C   0  0  0  0  0  0  0  0  0  0  0  0
   -5.2030   11.3710   16.0050 C   0  0  0  0  0  0  0  0  0  0  0  0
   -5.1200    9.9880   16.1930 C   0  0  0  0  0  0  0  0  0  0  0  0
   -2.5220    3.5950   17.1350 N   0  0  0  0  0  0  0  0  0  0  0  0
   -1.9810    4.8820   17.1660 C   0  0  0  0  0  0  0  0  0  0  0  0
   -0.8290    5.1450   17.5010 O   0  0  0  0  0  0  0  0  0  0  0  0
   -2.9030    5.8870   16.7580 C   0  0  0  0  0  0  0  0  0  0  0  0
   -2.6780    7.2320   16.6640 N   0  0  0  0  0  0  0  0  0  0  0  0
   -3.8220    7.8690   16.2230 C   0  0  0  0  0  0  0  0  0  0  0  0
   -4.7820    6.8780   16.0550 C   0  0  0  0  0  0  0  0  0  0  0  0
   -4.1920    5.6400   16.3920 C   0  0  0  0  0  0  0  0  0  0  0  0
   -4.6850    4.3440   16.4010 N   0  0  0  0  0  0  0  0  0  0  0  0
   -3.8400    3.2780   16.7550 C   0  0  0  0  0  0  0  0  0  0  0  0
   -4.2430    2.1120   16.7340 O   0  0  0  0  0  0  0  0  0  0  0  0
   -1.6430    2.4990   17.5320 C   0  0  0  0  0  0  0  0  0  0  0  0
    0.0500    2.0820   19.3970 C   0  0  0  0  0  0  0  0  0  0  0  0
   -1.3820    2.4540   19.0420 C   0  0  0  0  0  0  0  0  0  0  0  0
   -6.0530    4.0410   15.9830 C   0  0  0  0  0  0  0  0  0  0  0  0
   -6.9520    3.7210   17.1770 C   0  0  0  0  0  0  0  0  0  0  0  0
   -7.5460    4.9850   17.7790 C   0  0  0  0  0  0  0  0  0  0  0  0
   -4.2930   13.4520   15.4990 O   0  0  0  0  0  0  0  0  0  0  0  0
   -3.4790   14.1510   14.5670 C   0  0  0  0  0  0  0  0  0  0  0  0
   -2.8210   15.4460   15.0800 C   0  0  0  0  0  0  0  0  0  0  0  0
   -3.4810   16.4690   15.2710 O   0  0  0  0  0  0  0  0  0  0  0  0
   -1.4400   15.4030   15.3270 N   0  0  0  0  0  0  0  0  0  0  0  0
   -0.5750   14.3460   14.8070 C   0  0  0  0  0  0  0  0  0  0  0  0
    0.7150   14.1790   15.6130 C   0  0  0  0  0  0  0  0  0  0  0  0
    1.4570   15.5040   15.8720 C   0  0  0  0  0  0  0  0  0  0  0  0
    0.4510   16.4900   16.4970 C   0  0  0  0  0  0  0  0  0  0  0  0
   -0.7860   16.6750   15.6260 C   0  0  0  0  0  0  0  0  0  0  0  0
    2.2410   16.1010   14.7050 C   0  0  0  0  0  0  0  0  0  0  0  0
    2.3190   15.5070   13.4360 C   0  0  0  0  0  0  0  0  0  0  0  0
    3.0650   16.0910   12.4070 C   0  0  0  0  0  0  0  0  0  0  0  0
    3.7630   17.2730   12.6290 C   0  0  0  0  0  0  0  0  0  0  0  0
    3.7260   17.8660   13.8850 C   0  0  0  0  0  0  0  0  0  0  0  0
    2.9800   17.2820   14.9120 C   0  0  0  0  0  0  0  0  0  0  0  0
  1  6  2  0
  1 12  1  0
  2  1  1  0
  3  2  2  0
  3  4  1  0
  4  5  2  0
  5  6  1  0
  7  8  1  0
  7 18  1  0
  8  9  2  0
 10  8  1  0
 11 10  1  0
 12 11  1  0
 13 12  2  0
 13 14  1  0
 14 15  1  0
 14 10  2  0
 15 16  1  0
 16  7  1  0
 17 16  2  0
 18 20  1  0
 20 19  1  0
 21 15  1  0
 21 22  1  0
 22 23  1  0
 24  4  1  0
 25 26  1  0
 25 24  1  0
 26 27  2  0
 26 28  1  0
 28 33  1  0
 29 28  1  0
 29 30  1  0
 30 31  1  0
 31 32  1  0
 33 32  1  0
 34 39  1  0
 34 31  1  0
 35 34  2  0
 36 37  2  0
 36 35  1  0
 37 38  1  0
 38 39  2  0
M  END
$$$$
