lig_421
     RDKit          3D

 34 37  0  0  0  0  0  0  0  0999 V2000
   -0.0300  -16.4100   12.5530 N   0  0  0  0  0  0  0  0  0  0  0  0
   -0.6740  -17.6560   12.1020 C   0  0  0  0  0  0  0  0  0  0  0  0
   -0.0070  -18.9470   12.6290 C   0  0  0  0  0  0  0  0  0  0  0  0
    0.0940  -19.0480   14.1080 N   0  0  0  0  0  0  0  0  0  0  0  0
    0.0880  -17.6850   14.7050 C   0  0  0  0  0  0  0  0  0  0  0  0
    0.7360  -16.6210   13.7940 C   0  0  0  0  0  0  0  0  0  0  0  0
    0.7760  -15.7910   11.4890 C   0  0  0  0  0  0  0  0  0  0  0  0
   -1.0080  -12.1340    9.9660 C   0  0  0  0  0  0  0  0  0  0  0  0
   -1.1910  -12.5280   11.2940 C   0  0  0  0  0  0  0  0  0  0  0  0
   -0.6010  -13.6990   11.7760 C   0  0  0  0  0  0  0  0  0  0  0  0
    0.1900  -14.5030   10.9430 C   0  0  0  0  0  0  0  0  0  0  0  0
    0.4160  -14.0880    9.6180 C   0  0  0  0  0  0  0  0  0  0  0  0
   -0.1760  -12.9050    9.1280 C   0  0  0  0  0  0  0  0  0  0  0  0
   -1.9760   -9.9770   10.2990 C   0  0  0  0  0  0  0  0  0  0  0  0
   -1.6040  -11.0270    9.4160 O   0  0  0  0  0  0  0  0  0  0  0  0
    1.1870  -14.9200    8.8410 O   0  0  0  0  0  0  0  0  0  0  0  0
    0.4420  -15.6920    7.9050 C   0  0  0  0  0  0  0  0  0  0  0  0
    0.0090  -12.6100    7.7970 O   0  0  0  0  0  0  0  0  0  0  0  0
    1.1760  -11.8350    7.5320 C   0  0  0  0  0  0  0  0  0  0  0  0
   -0.9840  -19.8980   14.6950 C   0  0  0  0  0  0  0  0  0  0  0  0
   -0.9640  -21.3490   14.1840 C   0  0  0  0  0  0  0  0  0  0  0  0
   -2.1260  -21.9000   13.6090 C   0  0  0  0  0  0  0  0  0  0  0  0
   -2.1380  -23.2210   13.1580 C   0  0  0  0  0  0  0  0  0  0  0  0
   -0.9930  -23.9990   13.2830 C   0  0  0  0  0  0  0  0  0  0  0  0
   -1.0070  -25.2660   12.8480 F   0  0  0  0  0  0  0  0  0  0  0  0
    0.1630  -23.4840   13.8540 C   0  0  0  0  0  0  0  0  0  0  0  0
    0.1780  -22.1640   14.3070 C   0  0  0  0  0  0  0  0  0  0  0  0
   -0.9830  -19.9110   16.2320 C   0  0  0  0  0  0  0  0  0  0  0  0
   -2.0640  -19.3480   16.9370 C   0  0  0  0  0  0  0  0  0  0  0  0
   -2.0850  -19.3640   18.3330 C   0  0  0  0  0  0  0  0  0  0  0  0
   -1.0310  -19.9440   19.0290 C   0  0  0  0  0  0  0  0  0  0  0  0
   -1.0540  -19.9570   20.3690 F   0  0  0  0  0  0  0  0  0  0  0  0
    0.0450  -20.5080   18.3580 C   0  0  0  0  0  0  0  0  0  0  0  0
    0.0700  -20.4940   16.9620 C   0  0  0  0  0  0  0  0  0  0  0  0
  1  6  1  0
  2  1  1  0
  2  3  1  0
  3  4  1  0
  4 20  1  0
  4  5  1  0
  6  5  1  0
  7  1  1  0
  8  9  1  0
  9 10  2  0
 11  7  1  0
 11 10  1  0
 12 11  2  0
 13 12  1  0
 13  8  2  0
 15  8  1  0
 15 14  1  0
 16 12  1  0
 17 16  1  0
 18 13  1  0
 19 18  1  0
 20 28  1  0
 21 27  2  0
 21 20  1  0
 22 21  1  0
 23 24  1  0
 23 22  2  0
 24 26  2  0
 25 24  1  0
 26 27  1  0
 28 29  1  0
 28 34  2  0
 29 30  2  0
 30 31  1  0
 31 32  1  0
 33 31  2  0
 34 33  1  0
M  END
$$$$
