lig_119
     RDKit          3D

 22 23  0  0  1  0  0  0  0  0999 V2000
   20.1330   19.0040   10.0760 C   0  0  2  0  0  0  0  0  0  0  0  0
   21.4630   19.0710   10.8390 C   0  0  0  0  0  0  0  0  0  0  0  0
   20.2870   18.3890    8.7370 N   0  0  0  0  0  0  0  0  0  0  0  0
   21.7650   19.4970    7.1580 C   0  0  0  0  0  0  0  0  0  0  0  0
   21.6690   18.4030    8.2260 C   0  0  2  0  0  0  0  0  0  0  0  0
   22.0130   17.0130    7.6510 C   0  0  0  0  0  0  0  0  0  0  0  0
   22.4650   16.0130    8.7200 C   0  0  0  0  0  0  0  0  0  0  0  0
   23.2770   14.8910    8.1200 C   0  0  0  0  0  0  0  0  0  0  0  0
   23.6980   13.8150    8.9110 C   0  0  0  0  0  0  0  0  0  0  0  0
   24.4350   12.7700    8.3510 C   0  0  0  0  0  0  0  0  0  0  0  0
   24.7530   12.7900    6.9940 C   0  0  0  0  0  0  0  0  0  0  0  0
   24.3340   13.8530    6.1960 C   0  0  0  0  0  0  0  0  0  0  0  0
   23.5970   14.8980    6.7560 C   0  0  0  0  0  0  0  0  0  0  0  0
   19.4360   20.4060    9.9950 C   0  0  2  0  0  0  0  0  0  0  0  0
   18.5630   20.7890   11.1790 C   0  0  0  0  0  0  0  0  0  0  0  0
   18.2370   19.8270   12.1480 C   0  0  0  0  0  0  0  0  0  0  0  0
   17.4400   20.1640   13.2460 C   0  0  0  0  0  0  0  0  0  0  0  0
   16.9620   21.4600   13.3780 C   0  0  0  0  0  0  0  0  0  0  0  0
   17.2650   22.4300   12.4300 C   0  0  0  0  0  0  0  0  0  0  0  0
   18.0630   22.0940   11.3340 C   0  0  0  0  0  0  0  0  0  0  0  0
   16.1880   21.7440   14.4640 O   0  0  0  0  0  0  0  0  0  0  0  0
   18.6880   20.5050    8.7760 O   0  0  0  0  0  0  0  0  0  0  0  0
  1  2  1  6
  3  1  1  0
  5  4  1  6
  5  3  1  0
  6  5  1  0
  6  7  1  0
  8  7  1  0
  8  9  2  0
 10  9  1  0
 11 10  2  0
 12 13  2  0
 12 11  1  0
 13  8  1  0
 14 22  1  6
 14  1  1  0
 14 15  1  0
 15 20  2  0
 15 16  1  0
 16 17  2  0
 17 18  1  0
 18 21  1  0
 19 18  2  0
 20 19  1  0
M  END
$$$$
