lig_109
     RDKit          3D

 38 41  0  0  0  0  0  0  0  0999 V2000
    0.3440  -15.2980   12.1060 N   0  0  0  0  0  0  0  0  0  0  0  0
    1.7830  -15.5780   12.3100 C   0  0  0  0  0  0  0  0  0  0  0  0
    1.9990  -16.4500   13.5720 C   0  0  0  0  0  0  0  0  0  0  0  0
    1.2060  -17.6980   13.6340 N   0  0  0  0  0  0  0  0  0  0  0  0
   -0.2170  -17.3470   13.4010 C   0  0  0  0  0  0  0  0  0  0  0  0
   -0.4880  -16.5220   12.1210 C   0  0  0  0  0  0  0  0  0  0  0  0
   -0.8090  -12.5420   10.0800 C   0  0  0  0  0  0  0  0  0  0  0  0
   -0.5790  -13.3190   11.1550 N   0  0  0  0  0  0  0  0  0  0  0  0
    0.0890  -14.4730   10.9930 C   0  0  0  0  0  0  0  0  0  0  0  0
    0.5710  -14.8350    9.7500 C   0  0  0  0  0  0  0  0  0  0  0  0
    0.3160  -13.9890    8.6860 C   0  0  0  0  0  0  0  0  0  0  0  0
   -0.3730  -12.8340    8.8450 N   0  0  0  0  0  0  0  0  0  0  0  0
   -1.2250  -10.2910    9.1130 C   0  0  0  0  0  0  0  0  0  0  0  0
   -1.5310  -11.2140   10.3030 C   0  0  0  0  0  0  0  0  0  0  0  0
   -1.0510  -10.5440   11.6060 C   0  0  0  0  0  0  0  0  0  0  0  0
   -3.0550  -11.4190   10.4080 C   0  0  0  0  0  0  0  0  0  0  0  0
    0.8600  -14.3540    7.3170 C   0  0  0  0  0  0  0  0  0  0  0  0
    1.5850  -15.5080    7.2910 F   0  0  0  0  0  0  0  0  0  0  0  0
    1.6890  -13.3910    6.8120 F   0  0  0  0  0  0  0  0  0  0  0  0
   -0.1240  -14.5090    6.3860 F   0  0  0  0  0  0  0  0  0  0  0  0
    1.6600  -18.7240   12.6810 C   0  0  0  0  0  0  0  0  0  0  0  0
    1.1740  -20.1410   13.0200 C   0  0  0  0  0  0  0  0  0  0  0  0
    0.0230  -20.6040   12.1230 C   0  0  0  0  0  0  0  0  0  0  0  0
    0.0550  -22.1180   11.9250 C   0  0  0  0  0  0  0  0  0  0  0  0
   -0.9130  -22.7950   12.7650 N   0  0  0  0  0  0  0  0  0  0  0  0
   -0.5480  -23.3030   13.9870 C   0  0  0  0  0  0  0  0  0  0  0  0
    0.5900  -23.1870   14.4330 O   0  0  0  0  0  0  0  0  0  0  0  0
   -1.5620  -23.9740   14.6620 N   0  0  0  0  0  0  0  0  0  0  0  0
   -2.9900  -23.7150   14.4480 C   0  0  0  0  0  0  0  0  0  0  0  0
   -3.6740  -23.0930   15.6680 C   0  0  0  0  0  0  0  0  0  0  0  0
   -4.0860  -24.0570   16.7620 C   0  0  0  0  0  0  0  0  0  0  0  0
   -5.2230  -23.7070   17.5190 C   0  0  0  0  0  0  0  0  0  0  0  0
   -5.6940  -24.5240   18.5450 C   0  0  0  0  0  0  0  0  0  0  0  0
   -5.0340  -25.7090   18.8390 C   0  0  0  0  0  0  0  0  0  0  0  0
   -3.8970  -26.0620   18.1150 C   0  0  0  0  0  0  0  0  0  0  0  0
   -3.3910  -25.2380   17.0880 C   0  0  0  0  0  0  0  0  0  0  0  0
   -2.1450  -25.7230   16.3750 C   0  0  0  0  0  0  0  0  0  0  0  0
   -1.1770  -24.6360   15.9080 C   0  0  0  0  0  0  0  0  0  0  0  0
  1  6  1  0
  1  2  1  0
  2  3  1  0
  3  4  1  0
  5  4  1  0
  6  5  1  0
  7 14  1  0
  7  8  2  0
  9  8  1  0
  9  1  1  0
 10  9  2  0
 11 12  2  0
 11 10  1  0
 12  7  1  0
 13 14  1  0
 14 16  1  0
 14 15  1  0
 17 11  1  0
 18 17  1  0
 19 17  1  0
 20 17  1  0
 21 22  1  0
 21  4  1  0
 23 22  1  0
 24 23  1  0
 24 25  1  0
 25 26  1  0
 26 27  2  0
 26 28  1  0
 28 38  1  0
 29 28  1  0
 29 30  1  0
 30 31  1  0
 31 36  1  0
 31 32  2  0
 32 33  1  0
 33 34  2  0
 35 34  1  0
 36 35  2  0
 37 36  1  0
 38 37  1  0
M  END
$$$$
