lig_145
     RDKit          3D

 31 34  0  0  0  0  0  0  0  0999 V2000
   -1.9670    6.7400   17.1710 C   0  0  0  0  0  0  0  0  0  0  0  0
   -1.0730    5.8040   17.6450 C   0  0  0  0  0  0  0  0  0  0  0  0
   -1.5990    4.5940   18.0650 C   0  0  0  0  0  0  0  0  0  0  0  0
   -0.6990    3.5950   18.5630 N   0  0  0  0  0  0  0  0  0  0  0  0
    0.6440    3.8400   18.6160 N   0  0  0  0  0  0  0  0  0  0  0  0
    1.1860    2.7300   19.1170 C   0  0  0  0  0  0  0  0  0  0  0  0
    2.6530    2.6410   19.3160 C   0  0  0  0  0  0  0  0  0  0  0  0
    0.2140    1.7540   19.3960 C   0  0  0  0  0  0  0  0  0  0  0  0
   -0.9920    2.3200   19.0360 C   0  0  0  0  0  0  0  0  0  0  0  0
   -2.3550    1.7390   19.1140 C   0  0  0  0  0  0  0  0  0  0  0  0
   -2.9200    4.3290   18.0200 N   0  0  0  0  0  0  0  0  0  0  0  0
   -3.7050    5.3090   17.5430 C   0  0  0  0  0  0  0  0  0  0  0  0
   -3.2820    6.5060   17.1160 N   0  0  0  0  0  0  0  0  0  0  0  0
   -5.1310    5.0200   17.4980 C   0  0  0  0  0  0  0  0  0  0  0  0
   -6.2620    5.7480   17.8190 C   0  0  0  0  0  0  0  0  0  0  0  0
   -7.3780    4.9150   17.5570 C   0  0  0  0  0  0  0  0  0  0  0  0
   -6.8660    3.7240   17.0910 C   0  0  0  0  0  0  0  0  0  0  0  0
   -7.4740    2.4560   16.6440 C   0  0  0  0  0  0  0  0  0  0  0  0
   -5.5060    3.7810   17.0520 O   0  0  0  0  0  0  0  0  0  0  0  0
   -2.1320    9.0050   16.1690 C   0  0  0  0  0  0  0  0  0  0  0  0
   -3.3340    9.0690   15.9350 O   0  0  0  0  0  0  0  0  0  0  0  0
   -1.4390    7.9600   16.7470 N   0  0  0  0  0  0  0  0  0  0  0  0
   -1.2140   10.2020   15.8700 C   0  0  0  0  0  0  0  0  0  0  0  0
    0.0520   13.4460   16.1070 C   0  0  0  0  0  0  0  0  0  0  0  0
   -1.3000   13.6220   16.7890 C   0  0  0  0  0  0  0  0  0  0  0  0
   -2.0310   12.2820   16.8900 C   0  0  0  0  0  0  0  0  0  0  0  0
   -2.0000   11.4520   15.6650 N   0  0  0  0  0  0  0  0  0  0  0  0
   -1.5000   12.2050   14.5080 C   0  0  0  0  0  0  0  0  0  0  0  0
   -0.1190   12.8330   14.7120 C   0  0  0  0  0  0  0  0  0  0  0  0
    0.5120   15.5020   17.2160 C   0  0  0  0  0  0  0  0  0  0  0  0
    0.6820   14.7290   16.0340 O   0  0  0  0  0  0  0  0  0  0  0  0
  1  2  2  0
  2  3  1  0
  3  4  1  0
  4  5  1  0
  4  9  1  0
  5  6  2  0
  6  7  1  0
  6  8  1  0
  9 10  1  0
  9  8  2  0
 11  3  2  0
 12 11  1  0
 13  1  1  0
 13 12  2  0
 14 12  1  0
 14 15  2  0
 16 15  1  0
 17 16  2  0
 18 17  1  0
 19 17  1  0
 19 14  1  0
 20 22  1  0
 21 20  2  0
 22  1  1  0
 23 20  1  0
 24 25  1  0
 25 26  1  0
 27 23  1  0
 27 26  1  0
 28 29  1  0
 28 27  1  0
 29 24  1  0
 31 24  1  0
 31 30  1  0
M  END
$$$$
