lig_035
     RDKit          3D

 29 33  0  0  0  0  0  0  0  0999 V2000
   -1.8770    9.2860   16.0510 C   0  0  0  0  0  0  0  0  0  0  0  0
   -2.4840    8.0520   16.1070 N   0  0  0  0  0  0  0  0  0  0  0  0
   -1.6580    7.3390   16.8460 C   0  0  0  0  0  0  0  0  0  0  0  0
   -1.6630    5.9950   17.3340 C   0  0  0  0  0  0  0  0  0  0  0  0
   -0.5960    5.6320   18.1020 C   0  0  0  0  0  0  0  0  0  0  0  0
    0.4660    6.4700   18.4530 N   0  0  0  0  0  0  0  0  0  0  0  0
    0.4700    7.6860   17.9930 C   0  0  0  0  0  0  0  0  0  0  0  0
    1.4830    8.5650   18.2820 N   0  0  0  0  0  0  0  0  0  0  0  0
   -0.5950    8.1200   17.1930 N   0  0  0  0  0  0  0  0  0  0  0  0
   -0.7120    9.3780   16.7090 N   0  0  0  0  0  0  0  0  0  0  0  0
   -2.7980    5.1110   17.0330 C   0  0  0  0  0  0  0  0  0  0  0  0
   -2.6750    3.9030   16.2020 C   0  0  0  0  0  0  0  0  0  0  0  0
   -3.7260    3.1080   15.9280 C   0  0  0  0  0  0  0  0  0  0  0  0
   -5.0080    3.4250   16.4510 C   0  0  0  0  0  0  0  0  0  0  0  0
   -6.1670    2.8160   16.3290 N   0  0  0  0  0  0  0  0  0  0  0  0
   -7.0500    3.5750   17.0500 C   0  0  0  0  0  0  0  0  0  0  0  0
   -6.4290    4.6650   17.6250 C   0  0  0  0  0  0  0  0  0  0  0  0
   -6.9690    5.7470   18.4760 C   0  0  0  0  0  0  0  0  0  0  0  0
   -5.1070    4.5680   17.2380 N   0  0  0  0  0  0  0  0  0  0  0  0
   -4.0220    5.3960   17.5280 C   0  0  0  0  0  0  0  0  0  0  0  0
   -0.4600    4.2920   18.6270 C   0  0  0  0  0  0  0  0  0  0  0  0
   -1.4250    3.5090   19.1060 N   0  0  0  0  0  0  0  0  0  0  0  0
   -0.8150    2.3390   19.4710 C   0  0  0  0  0  0  0  0  0  0  0  0
    0.5220    2.4170   19.1980 C   0  0  0  0  0  0  0  0  0  0  0  0
    0.7690    3.6380   18.6620 O   0  0  0  0  0  0  0  0  0  0  0  0
   -2.4790   10.4260   15.3190 C   0  0  0  0  0  0  0  0  0  0  0  0
   -3.0410   11.4790   16.2660 C   0  0  0  0  0  0  0  0  0  0  0  0
   -5.2930   10.8150   16.0480 C   0  0  0  0  0  0  0  0  0  0  0  0
   -4.3480   11.8520   15.8220 O   0  0  0  0  0  0  0  0  0  0  0  0
  1  2  1  0
  1 10  2  0
  2  3  2  0
  3  9  1  0
  3  4  1  0
  4  5  2  0
  5  6  1  0
  5 21  1  0
  7  8  1  0
  7  6  2  0
  9  7  1  0
 10  9  1  0
 11  4  1  0
 11 20  2  0
 12 11  1  0
 13 12  2  0
 13 14  1  0
 14 19  1  0
 15 14  2  0
 15 16  1  0
 16 17  2  0
 17 18  1  0
 19 20  1  0
 19 17  1  0
 21 25  1  0
 21 22  2  0
 22 23  1  0
 24 23  2  0
 25 24  1  0
 26  1  1  0
 26 27  1  0
 29 28  1  0
 29 27  1  0
M  END
$$$$
