lig_071
     RDKit          3D

 32 35  0  0  1  0  0  0  0  0999 V2000
    2.1710   16.3960   15.6940 C   0  0  0  0  0  0  0  0  0  0  0  0
    0.9970   15.4510   15.6350 C   0  0  0  0  0  0  0  0  0  0  0  0
    1.0710   14.3280   16.1210 O   0  0  0  0  0  0  0  0  0  0  0  0
   -0.0840   15.9830   14.9740 N   0  0  0  0  0  0  0  0  0  0  0  0
   -1.3280   15.3900   14.7340 C   0  0  0  0  0  0  0  0  0  0  0  0
   -1.6880   14.1430   15.1900 C   0  0  0  0  0  0  0  0  0  0  0  0
   -2.9530   13.6960   14.8630 C   0  0  0  0  0  0  0  0  0  0  0  0
   -3.7960   14.4600   14.1420 N   0  0  0  0  0  0  0  0  0  0  0  0
   -3.3750   15.6750   13.7360 C   0  0  0  0  0  0  0  0  0  0  0  0
   -4.2920   16.4890   12.9680 N   0  0  0  0  0  0  0  0  0  0  0  0
   -5.5490   16.0360   12.6750 N   0  0  0  0  0  0  0  0  0  0  0  0
   -6.1240   17.0120   11.9710 C   0  0  0  0  0  0  0  0  0  0  0  0
   -7.5140   16.8510   11.4830 C   0  0  0  0  0  0  0  0  0  0  0  0
   -5.2620   18.1060   11.7960 C   0  0  0  0  0  0  0  0  0  0  0  0
   -4.0900   17.7630   12.4380 C   0  0  0  0  0  0  0  0  0  0  0  0
   -2.8370   18.5470   12.5690 C   0  0  0  0  0  0  0  0  0  0  0  0
   -2.1500   16.1670   14.0120 N   0  0  0  0  0  0  0  0  0  0  0  0
   -3.4800   12.3750   15.2750 C   0  0  0  0  0  0  0  0  0  0  0  0
   -4.8130   12.1900   15.6830 C   0  0  0  0  0  0  0  0  0  0  0  0
   -5.2880   10.9310   16.0620 C   0  0  0  0  0  0  0  0  0  0  0  0
   -4.4410    9.8230   16.0450 C   0  0  0  0  0  0  0  0  0  0  0  0
   -3.1130    9.9690   15.6550 C   0  0  0  0  0  0  0  0  0  0  0  0
   -2.6490   11.2370   15.2810 C   0  0  0  0  0  0  0  0  0  0  0  0
   -2.1730    8.9810   15.5930 O   0  0  0  0  0  0  0  0  0  0  0  0
   -1.8460    8.2600   16.7780 C   0  0  2  0  0  0  0  0  0  0  0  0
   -0.3680    7.8800   16.8240 C   0  0  0  0  0  0  0  0  0  0  0  0
   -0.3700    6.5170   17.4920 C   0  0  0  0  0  0  0  0  0  0  0  0
   -1.5210    5.8820   16.8650 N   0  0  0  0  0  0  0  0  0  0  0  0
   -2.5740    6.9010   16.7790 C   0  0  0  0  0  0  0  0  0  0  0  0
   -1.9540    4.5870   17.3930 C   0  0  0  0  0  0  0  0  0  0  0  0
   -1.1160    4.2220   18.6250 C   0  0  0  0  0  0  0  0  0  0  0  0
   -3.4450    4.4780   17.7330 C   0  0  0  0  0  0  0  0  0  0  0  0
  2  1  1  0
  2  3  2  0
  4  2  1  0
  5  4  1  0
  5  6  2  0
  7  6  1  0
  7 18  1  0
  8  7  2  0
  9 17  2  0
  9  8  1  0
 10  9  1  0
 11 10  1  0
 12 11  2  0
 13 12  1  0
 14 12  1  0
 14 15  2  0
 15 16  1  0
 15 10  1  0
 17  5  1  0
 18 23  1  0
 18 19  2  0
 19 20  1  0
 21 20  2  0
 22 21  1  0
 23 22  2  0
 24 22  1  0
 25 24  1  6
 25 29  1  0
 25 26  1  0
 26 27  1  0
 28 30  1  0
 28 27  1  0
 29 28  1  0
 30 32  1  0
 30 31  1  0
M  END
$$$$
