lig_120
     RDKit          3D

 29 32  0  0  1  0  0  0  0  0999 V2000
   -4.8530    7.5380   15.4820 C   0  0  0  0  0  0  0  0  0  0  0  0
   -5.5080    7.5410   14.4460 O   0  0  0  0  0  0  0  0  0  0  0  0
   -4.3060    8.6940   15.9860 N   0  0  0  0  0  0  0  0  0  0  0  0
   -2.1210    4.4150   18.2340 C   0  0  0  0  0  0  0  0  0  0  0  0
   -0.9570    5.1860   18.1280 C   0  0  0  0  0  0  0  0  0  0  0  0
   -0.9770    6.3740   17.4130 C   0  0  0  0  0  0  0  0  0  0  0  0
   -2.1560    6.7870   16.8030 C   0  0  0  0  0  0  0  0  0  0  0  0
   -3.3460    6.0140   16.8960 C   0  0  0  0  0  0  0  0  0  0  0  0
   -4.5960    6.3100   16.3270 C   0  0  0  0  0  0  0  0  0  0  0  0
   -5.7030    5.5340   16.4580 N   0  0  0  0  0  0  0  0  0  0  0  0
   -5.5640    4.4410   17.1880 C   0  0  0  0  0  0  0  0  0  0  0  0
   -6.6620    3.6250   17.3380 N   0  0  0  0  0  0  0  0  0  0  0  0
   -4.4280    4.0520   17.7520 N   0  0  0  0  0  0  0  0  0  0  0  0
   -3.3270    4.8180   17.6250 C   0  0  0  0  0  0  0  0  0  0  0  0
   -1.0010    2.4270   18.9850 C   0  0  0  0  0  0  0  0  0  0  0  0
   -2.1780    3.2210   18.9250 O   0  0  0  0  0  0  0  0  0  0  0  0
   -4.4280   10.0150   15.3740 C   0  0  2  0  0  0  0  0  0  0  0  0
   -3.0760   10.7120   15.3800 C   0  0  0  0  0  0  0  0  0  0  0  0
   -2.0080   10.1730   14.6730 C   0  0  0  0  0  0  0  0  0  0  0  0
   -0.7890   10.8430   14.6930 C   0  0  0  0  0  0  0  0  0  0  0  0
   -0.6600   12.0360   15.4140 C   0  0  0  0  0  0  0  0  0  0  0  0
    0.5530   12.7440   15.4610 C   0  0  0  0  0  0  0  0  0  0  0  0
    0.6480   13.9280   16.1870 C   0  0  0  0  0  0  0  0  0  0  0  0
   -0.4650   14.4090   16.8670 C   0  0  0  0  0  0  0  0  0  0  0  0
   -1.6700   13.7010   16.8170 C   0  0  0  0  0  0  0  0  0  0  0  0
   -1.7930   12.5180   16.1020 C   0  0  0  0  0  0  0  0  0  0  0  0
   -2.9740   11.8740   16.0850 N   0  0  0  0  0  0  0  0  0  0  0  0
   -5.4770   10.8900   16.0930 C   0  0  0  0  0  0  0  0  0  0  0  0
   -5.7690   12.0820   15.3570 O   0  0  0  0  0  0  0  0  0  0  0  0
  1  3  1  0
  1  9  1  0
  2  1  2  0
  4 16  1  0
  5  4  1  0
  6  5  2  0
  7  8  2  0
  7  6  1  0
  8 14  1  0
  9 10  2  0
  9  8  1  0
 10 11  1  0
 11 12  1  0
 11 13  2  0
 14 13  1  0
 14  4  2  0
 16 15  1  0
 17 18  1  0
 17  3  1  0
 17 28  1  1
 18 27  2  0
 19 20  2  0
 19 18  1  0
 20 21  1  0
 21 22  2  0
 21 26  1  0
 22 23  1  0
 23 24  2  0
 25 24  1  0
 26 25  2  0
 27 26  1  0
 29 28  1  0
M  END
$$$$
