lig_008
     RDKit          3D

 28 31  0  0  0  0  0  0  0  0999 V2000
   -0.7250    8.5680   17.0030 C   0  0  0  0  0  0  0  0  0  0  0  0
   -1.7010    7.5920   16.7660 C   0  0  0  0  0  0  0  0  0  0  0  0
   -1.5130    6.2710   17.1840 C   0  0  0  0  0  0  0  0  0  0  0  0
   -0.3500    5.8940   17.8540 C   0  0  0  0  0  0  0  0  0  0  0  0
    0.6300    6.8550   18.0940 C   0  0  0  0  0  0  0  0  0  0  0  0
    0.4440    8.1820   17.6740 C   0  0  0  0  0  0  0  0  0  0  0  0
   -0.5600   15.4660   14.5680 C   0  0  0  0  0  0  0  0  0  0  0  0
   -0.9920   14.1740   15.0630 N   0  0  0  0  0  0  0  0  0  0  0  0
   -0.0190   13.2030   15.3090 C   0  0  0  0  0  0  0  0  0  0  0  0
    1.1860   13.3520   15.1420 O   0  0  0  0  0  0  0  0  0  0  0  0
   -0.5710   11.9900   15.7890 C   0  0  0  0  0  0  0  0  0  0  0  0
    0.0290   10.8180   16.1410 N   0  0  0  0  0  0  0  0  0  0  0  0
   -0.9630    9.9440   16.5460 C   0  0  0  0  0  0  0  0  0  0  0  0
   -2.1490   10.5370   16.4510 N   0  0  0  0  0  0  0  0  0  0  0  0
   -1.8970   11.7890   15.9890 C   0  0  0  0  0  0  0  0  0  0  0  0
   -2.8200   12.7730   15.7330 N   0  0  0  0  0  0  0  0  0  0  0  0
   -4.2320   12.5240   15.9580 C   0  0  0  0  0  0  0  0  0  0  0  0
   -2.3830   14.0120   15.2560 C   0  0  0  0  0  0  0  0  0  0  0  0
   -3.1680   14.9320   15.0110 O   0  0  0  0  0  0  0  0  0  0  0  0
   -0.2960    4.5740   18.1990 O   0  0  0  0  0  0  0  0  0  0  0  0
   -1.4240    3.9810   18.8470 C   0  0  0  0  0  0  0  0  0  0  0  0
   -2.0610    2.9250   17.9400 C   0  0  0  0  0  0  0  0  0  0  0  0
   -3.4970    3.2230   17.4760 C   0  0  0  0  0  0  0  0  0  0  0  0
   -4.1710    4.3560   18.2560 C   0  0  0  0  0  0  0  0  0  0  0  0
   -5.6420    4.5030   17.8440 C   0  0  0  0  0  0  0  0  0  0  0  0
   -5.9050    4.2090   16.4340 N   0  0  0  0  0  0  0  0  0  0  0  0
   -4.7400    4.4360   15.5900 C   0  0  0  0  0  0  0  0  0  0  0  0
   -3.5990    3.4810   15.9590 C   0  0  0  0  0  0  0  0  0  0  0  0
  1  6  2  0
  2  1  1  0
  2  3  2  0
  3  4  1  0
  4  5  2  0
  4 20  1  0
  6  5  1  0
  7  8  1  0
  8 18  1  0
  8  9  1  0
  9 11  1  0
 10  9  2  0
 11 15  2  0
 11 12  1  0
 12 13  1  0
 13  1  1  0
 14 13  2  0
 15 14  1  0
 16 17  1  0
 16 15  1  0
 18 16  1  0
 19 18  2  0
 20 21  1  0
 22 21  1  0
 23 22  1  0
 23 24  1  0
 25 24  1  0
 26 25  1  0
 27 28  1  0
 27 26  1  0
 28 23  1  0
M  END
$$$$
