lig_082
     RDKit          3D

 33 37  0  0  0  0  0  0  0  0999 V2000
   -4.2410    9.0790   15.5580 C   0  0  0  0  0  0  0  0  0  0  0  0
   -4.9330    7.9970   15.9720 N   0  0  0  0  0  0  0  0  0  0  0  0
   -4.2470    6.9790   16.5740 C   0  0  0  0  0  0  0  0  0  0  0  0
   -2.8630    7.0590   16.7760 C   0  0  0  0  0  0  0  0  0  0  0  0
   -2.1430    8.1380   16.3660 N   0  0  0  0  0  0  0  0  0  0  0  0
   -2.8550    9.1380   15.7630 C   0  0  0  0  0  0  0  0  0  0  0  0
   -2.0320    6.0160   17.4060 C   0  0  0  0  0  0  0  0  0  0  0  0
   -0.6640    6.2720   17.8780 C   0  0  0  0  0  0  0  0  0  0  0  0
    0.0840    5.3160   18.4630 C   0  0  0  0  0  0  0  0  0  0  0  0
   -0.4610    4.0170   18.6420 C   0  0  0  0  0  0  0  0  0  0  0  0
    0.0090    2.9080   19.1690 N   0  0  0  0  0  0  0  0  0  0  0  0
   -0.9760    1.9460   19.0740 N   0  0  0  0  0  0  0  0  0  0  0  0
   -2.0180    2.4970   18.4920 C   0  0  0  0  0  0  0  0  0  0  0  0
   -1.7550    3.8050   18.1980 N   0  0  0  0  0  0  0  0  0  0  0  0
   -2.5440    4.7810   17.5990 C   0  0  0  0  0  0  0  0  0  0  0  0
   -5.0560    5.8240   16.9730 C   0  0  0  0  0  0  0  0  0  0  0  0
   -5.6470    5.5490   18.1240 N   0  0  0  0  0  0  0  0  0  0  0  0
   -6.2520    4.3360   17.9170 C   0  0  0  0  0  0  0  0  0  0  0  0
   -6.0140    3.9110   16.6370 C   0  0  0  0  0  0  0  0  0  0  0  0
   -5.2520    4.8520   16.0190 O   0  0  0  0  0  0  0  0  0  0  0  0
   -2.0410   10.3100   15.3100 C   0  0  0  0  0  0  0  0  0  0  0  0
   -1.4910   10.3350   14.2160 O   0  0  0  0  0  0  0  0  0  0  0  0
   -1.9550   11.3330   16.2330 N   0  0  0  0  0  0  0  0  0  0  0  0
   -1.0630   12.4510   16.0470 C   0  0  0  0  0  0  0  0  0  0  0  0
   -1.8150   13.7160   15.7770 C   0  0  0  0  0  0  0  0  0  0  0  0
   -2.4080   13.9490   14.5360 C   0  0  0  0  0  0  0  0  0  0  0  0
   -2.3120   13.0260   13.5700 F   0  0  0  0  0  0  0  0  0  0  0  0
   -3.0970   15.1310   14.2670 C   0  0  0  0  0  0  0  0  0  0  0  0
   -3.2010   16.1120   15.2520 C   0  0  0  0  0  0  0  0  0  0  0  0
   -2.6110   15.9000   16.4970 C   0  0  0  0  0  0  0  0  0  0  0  0
   -1.9250   14.7120   16.7480 C   0  0  0  0  0  0  0  0  0  0  0  0
   -1.3650   14.5370   17.9530 F   0  0  0  0  0  0  0  0  0  0  0  0
   -4.9990   10.1070   14.9800 N   0  0  0  0  0  0  0  0  0  0  0  0
  1  6  1  0
  1  2  2  0
  2  3  1  0
  3  4  2  0
  3 16  1  0
  4  7  1  0
  5  4  1  0
  6  5  2  0
  7 15  2  0
  7  8  1  0
  8  9  2  0
  9 10  1  0
 10 11  2  0
 12 11  1  0
 13 12  2  0
 14 13  1  0
 14 10  1  0
 15 14  1  0
 16 17  2  0
 18 17  1  0
 19 18  2  0
 20 19  1  0
 20 16  1  0
 21  6  1  0
 21 23  1  0
 22 21  2  0
 24 23  1  0
 25 24  1  0
 25 31  1  0
 26 25  2  0
 27 26  1  0
 28 26  1  0
 28 29  2  0
 29 30  1  0
 30 31  2  0
 31 32  1  0
 33  1  1  0
M  END
$$$$
