lig_452
     RDKit          3D

 30 34  0  0  0  0  0  0  0  0999 V2000
   -0.0360   18.1570   18.6980 C   0  0  0  0  0  0  0  0  0  0  0  0
   -0.7240   17.2070   17.8570 N   0  0  0  0  0  0  0  0  0  0  0  0
   -1.4900   17.4900   16.7520 C   0  0  0  0  0  0  0  0  0  0  0  0
   -1.9130   16.2690   16.3190 C   0  0  0  0  0  0  0  0  0  0  0  0
   -1.3700   15.3180   17.1970 C   0  0  0  0  0  0  0  0  0  0  0  0
   -1.5700   13.9250   17.0910 N   0  0  0  0  0  0  0  0  0  0  0  0
   -2.3200   13.5430   16.0950 C   0  0  0  0  0  0  0  0  0  0  0  0
   -2.6640   12.2400   15.7790 N   0  0  0  0  0  0  0  0  0  0  0  0
   -2.2290   11.0770   16.3920 C   0  0  0  0  0  0  0  0  0  0  0  0
   -1.5270   11.0350   17.3990 O   0  0  0  0  0  0  0  0  0  0  0  0
   -2.9150   14.4110   15.1560 N   0  0  0  0  0  0  0  0  0  0  0  0
   -3.6890   14.0300   14.1160 N   0  0  0  0  0  0  0  0  0  0  0  0
   -3.9680   15.2240   13.5480 C   0  0  0  0  0  0  0  0  0  0  0  0
   -3.4150   16.3180   14.2010 N   0  0  0  0  0  0  0  0  0  0  0  0
   -2.7670   15.7610   15.1880 C   0  0  0  0  0  0  0  0  0  0  0  0
   -0.6380   15.8840   18.1470 N   0  0  0  0  0  0  0  0  0  0  0  0
   -4.7830   15.3710   12.3440 C   0  0  0  0  0  0  0  0  0  0  0  0
   -5.7910   16.3480   12.2690 C   0  0  0  0  0  0  0  0  0  0  0  0
   -6.5660   16.4820   11.1150 C   0  0  0  0  0  0  0  0  0  0  0  0
   -6.3360   15.6380   10.0350 C   0  0  0  0  0  0  0  0  0  0  0  0
   -7.0800   15.7670    8.9280 F   0  0  0  0  0  0  0  0  0  0  0  0
   -5.3470   14.6640   10.0850 C   0  0  0  0  0  0  0  0  0  0  0  0
   -4.5700   14.5300   11.2400 C   0  0  0  0  0  0  0  0  0  0  0  0
   -2.7650    9.7890   15.7770 C   0  0  0  0  0  0  0  0  0  0  0  0
   -2.2090    8.5130   16.3660 C   0  0  0  0  0  0  0  0  0  0  0  0
   -0.8360    8.3930   16.6270 C   0  0  0  0  0  0  0  0  0  0  0  0
   -0.3150    7.2000   17.1290 C   0  0  0  0  0  0  0  0  0  0  0  0
   -1.1580    6.1200   17.3800 C   0  0  0  0  0  0  0  0  0  0  0  0
   -2.5260    6.2310   17.1310 C   0  0  0  0  0  0  0  0  0  0  0  0
   -3.0500    7.4220   16.6270 C   0  0  0  0  0  0  0  0  0  0  0  0
  2 16  1  0
  2  1  1  0
  3  2  1  0
  4  3  2  0
  4  5  1  0
  5 16  2  0
  6  5  1  0
  7  6  2  0
  8  7  1  0
  8  9  1  0
  9 10  2  0
 11 15  1  0
 11  7  1  0
 12 11  1  0
 13 12  2  0
 13 14  1  0
 14 15  2  0
 15  4  1  0
 17 13  1  0
 18 17  1  0
 19 18  2  0
 20 22  2  0
 20 19  1  0
 21 20  1  0
 22 23  1  0
 23 17  2  0
 24 25  1  0
 24  9  1  0
 25 26  2  0
 25 30  1  0
 26 27  1  0
 27 28  2  0
 29 28  1  0
 30 29  2  0
M  END
$$$$
