lig_238
     RDKit          3D

 32 37  0  0  0  0  0  0  0  0999 V2000
   -4.6020   15.5990   13.9010 O   0  0  0  0  0  0  0  0  0  0  0  0
   -3.4780   15.1660   14.1610 C   0  0  0  0  0  0  0  0  0  0  0  0
   -3.3070   13.7910   14.7630 C   0  0  0  0  0  0  0  0  0  0  0  0
   -4.4850   13.0630   14.9560 N   0  0  0  0  0  0  0  0  0  0  0  0
   -4.3780   11.8680   15.4510 C   0  0  0  0  0  0  0  0  0  0  0  0
   -3.1320   11.3410   15.7590 N   0  0  0  0  0  0  0  0  0  0  0  0
   -3.0010   10.0990   16.2520 N   0  0  0  0  0  0  0  0  0  0  0  0
   -1.6760    9.9240   16.3800 C   0  0  0  0  0  0  0  0  0  0  0  0
   -0.9840   11.0990   15.9570 C   0  0  0  0  0  0  0  0  0  0  0  0
   -1.9470   12.0100   15.5780 C   0  0  0  0  0  0  0  0  0  0  0  0
   -2.0650   13.3400   15.0640 C   0  0  0  0  0  0  0  0  0  0  0  0
   -0.9330   14.2880   14.8230 C   0  0  0  0  0  0  0  0  0  0  0  0
   -1.0680   15.4440   14.2540 N   0  0  0  0  0  0  0  0  0  0  0  0
   -2.3160   15.8710   13.9040 N   0  0  0  0  0  0  0  0  0  0  0  0
   -1.1120    8.6650   16.8840 C   0  0  0  0  0  0  0  0  0  0  0  0
   -1.8370    7.4670   16.7730 C   0  0  0  0  0  0  0  0  0  0  0  0
   -1.3130    6.2610   17.2460 C   0  0  0  0  0  0  0  0  0  0  0  0
   -0.0540    6.2350   17.8410 C   0  0  0  0  0  0  0  0  0  0  0  0
    0.6790    7.4130   17.9630 C   0  0  0  0  0  0  0  0  0  0  0  0
    0.1540    8.6200   17.4880 C   0  0  0  0  0  0  0  0  0  0  0  0
    0.4960   13.9080   15.2470 C   0  0  0  0  0  0  0  0  0  0  0  0
    1.4840   14.1000   14.1000 C   0  0  0  0  0  0  0  0  0  0  0  0
    1.8790   15.5680   14.1810 C   0  0  0  0  0  0  0  0  0  0  0  0
    1.8430   15.9180   15.6630 C   0  0  0  0  0  0  0  0  0  0  0  0
    1.0800   14.7890   16.3590 C   0  0  0  0  0  0  0  0  0  0  0  0
   -2.4030   17.2230   13.3580 C   0  0  0  0  0  0  0  0  0  0  0  0
   -1.0400   17.8300   13.1160 C   0  0  0  0  0  0  0  0  0  0  0  0
   -0.4420   18.6460   14.0880 C   0  0  0  0  0  0  0  0  0  0  0  0
    0.8090   19.2200   13.8580 C   0  0  0  0  0  0  0  0  0  0  0  0
    1.4710   18.9910   12.6520 C   0  0  0  0  0  0  0  0  0  0  0  0
    0.8800   18.1930   11.6750 C   0  0  0  0  0  0  0  0  0  0  0  0
   -0.3710   17.6180   11.9030 C   0  0  0  0  0  0  0  0  0  0  0  0
  1  2  2  0
  2  3  1  0
  3  4  1  0
  3 11  2  0
  4  5  2  0
  5  6  1  0
  6  7  1  0
  7  8  2  0
  8 15  1  0
  9  8  1  0
 10  6  1  0
 10  9  2  0
 11 10  1  0
 12 11  1  0
 12 21  1  0
 13 12  2  0
 14  2  1  0
 14 13  1  0
 15 20  1  0
 16 15  2  0
 16 17  1  0
 17 18  2  0
 18 19  1  0
 20 19  2  0
 21 25  1  0
 22 23  1  0
 22 21  1  0
 23 24  1  0
 24 25  1  0
 26 14  1  0
 27 26  1  0
 27 28  2  0
 29 28  1  0
 30 29  2  0
 31 32  2  0
 31 30  1  0
 32 27  1  0
M  END
$$$$
