lig_014
     RDKit          3D

 26 29  0  0  1  0  0  0  0  0999 V2000
   20.1680   18.0700    9.7110 C   0  0  1  0  0  0  0  0  0  0  0  0
   19.4870   16.6900    9.7650 C   0  0  0  0  0  0  0  0  0  0  0  0
   19.7230   16.1490   11.1870 C   0  0  0  0  0  0  0  0  0  0  0  0
   19.7600   17.4150   11.9720 C   0  0  0  0  0  0  0  0  0  0  0  0
   19.6480   17.6120   13.3280 C   0  0  0  0  0  0  0  0  0  0  0  0
   19.7750   18.9210   13.7980 C   0  0  0  0  0  0  0  0  0  0  0  0
   20.0110   19.9880   12.9100 C   0  0  0  0  0  0  0  0  0  0  0  0
   20.1390   21.2890   13.4370 N   0  0  0  0  0  0  0  0  0  0  0  0
   18.8540   21.7630   13.9990 C   0  0  0  0  0  0  0  0  0  0  0  0
   18.9410   23.2510   14.4020 C   0  0  0  0  0  0  0  0  0  0  0  0
   19.3090   24.1810   13.3170 N   0  0  0  0  0  0  0  0  0  0  0  0
   19.9220   23.4580   12.1860 C   0  0  0  0  0  0  0  0  0  0  0  0
   20.8410   22.2640   12.5610 C   0  0  1  0  0  0  0  0  0  0  0  0
   22.1060   22.7320   13.2900 C   0  0  0  0  0  0  0  0  0  0  0  0
   20.1280   19.7790   11.5800 N   0  0  0  0  0  0  0  0  0  0  0  0
   20.0060   18.5070   11.1530 C   0  0  0  0  0  0  0  0  0  0  0  0
   21.5390   17.8850    9.3630 O   0  0  0  0  0  0  0  0  0  0  0  0
   21.7200   17.6240    7.9750 C   0  0  0  0  0  0  0  0  0  0  0  0
   23.0440   16.8530    5.3810 C   0  0  0  0  0  0  0  0  0  0  0  0
   23.1830   16.0130    6.6210 C   0  0  0  0  0  0  0  0  0  0  0  0
   23.9560   14.8390    6.5670 C   0  0  0  0  0  0  0  0  0  0  0  0
   24.0960   14.0260    7.6920 C   0  0  0  0  0  0  0  0  0  0  0  0
   23.4620   14.3810    8.8740 C   0  0  0  0  0  0  0  0  0  0  0  0
   23.5900   13.5960    9.9520 F   0  0  0  0  0  0  0  0  0  0  0  0
   22.7000   15.5390    8.9540 C   0  0  0  0  0  0  0  0  0  0  0  0
   22.5650   16.3810    7.8350 C   0  0  0  0  0  0  0  0  0  0  0  0
  1 17  1  1
  1  2  1  0
  1 16  1  0
  2  3  1  0
  3  4  1  0
  4  5  1  0
  5  6  2  0
  7  8  1  0
  7  6  1  0
  8  9  1  0
  9 10  1  0
 11 10  1  0
 12 13  1  0
 12 11  1  0
 13 14  1  1
 13  8  1  0
 15  7  2  0
 16 15  1  0
 16  4  2  0
 18 17  1  0
 19 20  1  0
 20 26  2  0
 21 20  1  0
 21 22  2  0
 22 23  1  0
 23 25  2  0
 23 24  1  0
 26 18  1  0
 26 25  1  0
M  END
$$$$
