lig_343
     RDKit          3D

 33 36  0  0  1  0  0  0  0  0999 V2000
   -4.9080    6.5980   16.7480 N   0  0  0  0  0  0  0  0  0  0  0  0
   -3.5690    6.9290   16.8130 C   0  0  0  0  0  0  0  0  0  0  0  0
   -3.2320    8.0270   16.1380 N   0  0  0  0  0  0  0  0  0  0  0  0
   -1.9380    8.4310   16.1280 C   0  0  0  0  0  0  0  0  0  0  0  0
   -0.9880    7.6970   16.8260 C   0  0  0  0  0  0  0  0  0  0  0  0
    0.7120    7.8910   17.0170 S   0  0  0  0  0  0  0  0  0  0  0  0
    0.8430    6.5020   18.0010 C   0  0  0  0  0  0  0  0  0  0  0  0
   -0.3740    5.8870   18.1790 C   0  0  0  0  0  0  0  0  0  0  0  0
   -1.4310    6.5650   17.5020 C   0  0  0  0  0  0  0  0  0  0  0  0
   -2.7230    6.1700   17.5040 N   0  0  0  0  0  0  0  0  0  0  0  0
   -1.6010    9.6850   15.4000 C   0  0  0  0  0  0  0  0  0  0  0  0
   -0.7350    9.6510   14.5270 O   0  0  0  0  0  0  0  0  0  0  0  0
   -2.2790   10.8590   15.7050 N   0  0  0  0  0  0  0  0  0  0  0  0
   -3.3820   11.0380   16.6370 C   0  0  0  0  0  0  0  0  0  0  0  0
   -3.7100   12.5230   16.5690 C   0  0  0  0  0  0  0  0  0  0  0  0
   -3.2810   12.9220   15.1560 C   0  0  2  0  0  0  0  0  0  0  0  0
   -2.0310   12.0760   14.9460 C   0  0  0  0  0  0  0  0  0  0  0  0
   -2.9880   14.3920   15.0010 C   0  0  0  0  0  0  0  0  0  0  0  0
   -2.7860   14.9460   13.9320 O   0  0  0  0  0  0  0  0  0  0  0  0
   -3.0460   15.0080   16.2140 O   0  0  0  0  0  0  0  0  0  0  0  0
   -1.8980   15.7190   16.7450 C   0  0  0  0  0  0  0  0  0  0  0  0
   -2.0120   17.2260   16.4960 C   0  0  0  0  0  0  0  0  0  0  0  0
   -1.9510   15.4650   18.2590 C   0  0  0  0  0  0  0  0  0  0  0  0
   -0.5870   15.1440   16.1980 C   0  0  0  0  0  0  0  0  0  0  0  0
   -6.4890    6.8140   18.6160 C   0  0  0  0  0  0  0  0  0  0  0  0
   -5.4930    5.9030   17.8870 C   0  0  1  0  0  0  0  0  0  0  0  0
   -6.0810    4.6040   17.3670 C   0  0  0  0  0  0  0  0  0  0  0  0
   -5.4590    3.7850   16.4240 C   0  0  0  0  0  0  0  0  0  0  0  0
   -5.9740    2.6210   15.9570 N   0  0  0  0  0  0  0  0  0  0  0  0
   -7.1720    2.2430   16.4600 C   0  0  0  0  0  0  0  0  0  0  0  0
   -7.8680    2.9760   17.4000 C   0  0  0  0  0  0  0  0  0  0  0  0
   -9.0490    2.5500   17.8650 F   0  0  0  0  0  0  0  0  0  0  0  0
   -7.3210    4.1660   17.8600 C   0  0  0  0  0  0  0  0  0  0  0  0
  1  2  1  0
  1 26  1  0
  2 10  1  0
  3  2  2  0
  4  3  1  0
  4  5  2  0
  5  6  1  0
  5  9  1  0
  6  7  1  0
  7  8  2  0
  9 10  2  0
  9  8  1  0
 11 13  1  0
 11  4  1  0
 12 11  2  0
 13 14  1  0
 15 14  1  0
 16 18  1  1
 16 15  1  0
 17 16  1  0
 17 13  1  0
 18 20  1  0
 19 18  2  0
 20 21  1  0
 21 23  1  0
 22 21  1  0
 24 21  1  0
 26 25  1  6
 27 33  1  0
 27 26  1  0
 28 27  2  0
 29 28  1  0
 29 30  2  0
 30 31  1  0
 31 33  2  0
 31 32  1  0
M  END
$$$$
