lig_202
     RDKit          3D

 33 37  0  0  1  0  0  0  0  0999 V2000
    0.3760  -19.5710   12.4680 N   0  0  0  0  0  0  0  0  0  0  0  0
   -0.6760  -18.9290   11.6680 C   0  0  0  0  0  0  0  0  0  0  0  0
   -0.7430  -17.5330   12.2770 C   0  0  0  0  0  0  0  0  0  0  0  0
    0.6910  -17.2690   12.6570 C   0  0  2  0  0  0  0  0  0  0  0  0
    0.9640  -16.2770   13.7620 C   0  0  0  0  0  0  0  0  0  0  0  0
    1.4300  -15.9660   12.3630 C   0  0  2  0  0  0  0  0  0  0  0  0
    1.4520  -18.5740   12.5890 C   0  0  0  0  0  0  0  0  0  0  0  0
    0.7970  -14.8650   11.5470 C   0  0  0  0  0  0  0  0  0  0  0  0
   -0.3110  -14.1380   12.0080 C   0  0  0  0  0  0  0  0  0  0  0  0
   -0.8760  -13.1060   11.2520 C   0  0  0  0  0  0  0  0  0  0  0  0
   -0.3420  -12.7630   10.0040 C   0  0  0  0  0  0  0  0  0  0  0  0
    0.7790  -13.4640    9.5400 C   0  0  0  0  0  0  0  0  0  0  0  0
    1.3360  -14.4940   10.3030 C   0  0  0  0  0  0  0  0  0  0  0  0
   -0.9350  -11.6360    9.1960 C   0  0  0  0  0  0  0  0  0  0  0  0
   -2.2720  -11.7930    8.9920 F   0  0  0  0  0  0  0  0  0  0  0  0
   -0.7880  -10.4170    9.7880 F   0  0  0  0  0  0  0  0  0  0  0  0
   -0.3800  -11.5150    7.9570 F   0  0  0  0  0  0  0  0  0  0  0  0
    0.8580  -20.8310   11.9050 C   0  0  0  0  0  0  0  0  0  0  0  0
   -0.2520  -21.8510   11.6130 C   0  0  0  0  0  0  0  0  0  0  0  0
   -0.7040  -22.5990   12.8670 C   0  0  0  0  0  0  0  0  0  0  0  0
    0.7080  -23.0240   13.9390 S   0  0  0  0  0  0  0  0  0  0  0  0
   -0.5710  -22.0580   17.4470 C   0  0  0  0  0  0  0  0  0  0  0  0
   -0.9820  -23.3090   17.4000 N   0  0  0  0  0  0  0  0  0  0  0  0
   -0.6050  -23.8360   16.1870 N   0  0  0  0  0  0  0  0  0  0  0  0
    0.0050  -22.8900   15.5130 C   0  0  0  0  0  0  0  0  0  0  0  0
    0.0240  -21.7370   16.2510 N   0  0  0  0  0  0  0  0  0  0  0  0
    0.5140  -20.4480   15.8370 C   0  0  0  0  0  0  0  0  0  0  0  0
   -2.7860  -19.7160   17.9550 C   0  0  0  0  0  0  0  0  0  0  0  0
   -1.6850  -20.2080   18.8140 C   0  0  0  0  0  0  0  0  0  0  0  0
   -1.4750  -19.6490   20.0550 N   0  0  0  0  0  0  0  0  0  0  0  0
   -0.4120  -20.2750   20.4980 C   0  0  0  0  0  0  0  0  0  0  0  0
    0.0870  -21.2240   19.6660 O   0  0  0  0  0  0  0  0  0  0  0  0
   -0.7450  -21.2000   18.5710 C   0  0  0  0  0  0  0  0  0  0  0  0
  1  7  1  0
  2  3  1  0
  2  1  1  0
  4  3  1  6
  4  5  1  0
  6  8  1  6
  6  4  1  0
  6  5  1  0
  7  4  1  0
  8  9  1  0
 10  9  2  0
 11 10  1  0
 12 11  2  0
 12 13  1  0
 13  8  2  0
 14 16  1  0
 14 11  1  0
 15 14  1  0
 17 14  1  0
 18  1  1  0
 19 18  1  0
 19 20  1  0
 20 21  1  0
 21 25  1  0
 22 33  1  0
 23 22  2  0
 24 23  1  0
 25 24  2  0
 25 26  1  0
 26 22  1  0
 27 26  1  0
 28 29  1  0
 29 30  1  0
 30 31  2  0
 32 31  1  0
 33 29  2  0
 33 32  1  0
M  END
$$$$
