lig_116
     RDKit          3D

 27 29  0  0  0  0  0  0  0  0999 V2000
    1.5810  -16.6780   13.5510 C   0  0  0  0  0  0  0  0  0  0  0  0
    0.7560  -17.8500   13.2320 N   0  0  0  0  0  0  0  0  0  0  0  0
    1.5880  -18.9460   12.6670 C   0  0  0  0  0  0  0  0  0  0  0  0
    0.7700  -20.2270   12.3740 C   0  0  0  0  0  0  0  0  0  0  0  0
    0.0770  -20.6770   13.6020 N   0  0  0  0  0  0  0  0  0  0  0  0
   -0.7700  -19.6130   14.1780 C   0  0  0  0  0  0  0  0  0  0  0  0
    0.0860  -18.3550   14.4550 C   0  0  0  0  0  0  0  0  0  0  0  0
   -0.4970  -21.9560   13.4570 C   0  0  0  0  0  0  0  0  0  0  0  0
   -0.9750  -22.4090   12.2130 C   0  0  0  0  0  0  0  0  0  0  0  0
   -1.5270  -23.6830   12.0640 C   0  0  0  0  0  0  0  0  0  0  0  0
   -1.6110  -24.5380   13.1590 C   0  0  0  0  0  0  0  0  0  0  0  0
   -1.1420  -24.1210   14.4070 C   0  0  0  0  0  0  0  0  0  0  0  0
   -1.2830  -25.2450   15.7160 Cl  0  0  0  0  0  0  0  0  0  0  0  0
   -0.5860  -22.8400   14.5640 C   0  0  0  0  0  0  0  0  0  0  0  0
   -0.0300  -22.3140   16.1290 Cl  0  0  0  0  0  0  0  0  0  0  0  0
    0.9870  -15.6100   11.3040 C   0  0  0  0  0  0  0  0  0  0  0  0
    1.6870  -15.6480   12.4540 C   0  0  0  0  0  0  0  0  0  0  0  0
    1.0770  -14.5920   10.2070 C   0  0  0  0  0  0  0  0  0  0  0  0
    1.0890  -12.0550    8.9350 O   0  0  0  0  0  0  0  0  0  0  0  0
    0.1460  -12.3860    9.6450 C   0  0  0  0  0  0  0  0  0  0  0  0
    0.0960  -13.5560   10.3710 N   0  0  0  0  0  0  0  0  0  0  0  0
   -1.0800  -11.5320    9.7740 C   0  0  0  0  0  0  0  0  0  0  0  0
   -2.1810  -12.0050   10.4760 C   0  0  0  0  0  0  0  0  0  0  0  0
   -3.2970  -11.1810   10.5770 C   0  0  0  0  0  0  0  0  0  0  0  0
   -3.2730   -9.9240    9.9800 C   0  0  0  0  0  0  0  0  0  0  0  0
   -2.1280   -9.5340    9.2990 C   0  0  0  0  0  0  0  0  0  0  0  0
   -1.0250  -10.3050    9.1800 N   0  0  0  0  0  0  0  0  0  0  0  0
  2  1  1  0
  2  7  1  0
  3  2  1  0
  4  3  1  0
  4  5  1  0
  5  6  1  0
  6  7  1  0
  8  5  1  0
  8 14  1  0
  9  8  2  0
 10  9  1  0
 10 11  2  0
 11 12  1  0
 12 14  2  0
 12 13  1  0
 14 15  1  0
 16 17  2  0
 17  1  1  0
 18 21  1  0
 18 16  1  0
 19 20  2  0
 20 22  1  0
 20 21  1  0
 22 23  2  0
 23 24  1  0
 25 24  2  0
 26 25  1  0
 27 26  2  0
 27 22  1  0
M  END
$$$$
