lig_352
     RDKit          3D

 32 36  0  0  0  0  0  0  0  0999 V2000
    1.1230  -19.8090   12.9680 C   0  0  0  0  0  0  0  0  0  0  0  0
    1.3160  -12.0760    6.5210 C   0  0  0  0  0  0  0  0  0  0  0  0
    0.9520  -13.2210    7.3770 C   0  0  0  0  0  0  0  0  0  0  0  0
    0.5660  -14.4310    7.0200 N   0  0  0  0  0  0  0  0  0  0  0  0
    0.3690  -15.0700    8.2190 C   0  0  0  0  0  0  0  0  0  0  0  0
   -0.0440  -16.3720    8.5170 C   0  0  0  0  0  0  0  0  0  0  0  0
   -0.1650  -16.7790    9.8720 C   0  0  0  0  0  0  0  0  0  0  0  0
    0.1220  -15.8590   10.9060 C   0  0  0  0  0  0  0  0  0  0  0  0
    0.5360  -14.5410   10.6050 C   0  0  0  0  0  0  0  0  0  0  0  0
    0.6430  -14.2090    9.2620 C   0  0  0  0  0  0  0  0  0  0  0  0
    1.0200  -13.0110    8.7300 O   0  0  0  0  0  0  0  0  0  0  0  0
   -0.0410  -16.2210   12.3630 C   0  0  0  0  0  0  0  0  0  0  0  0
    0.8440  -17.3840   12.8460 C   0  0  0  0  0  0  0  0  0  0  0  0
    0.7550  -18.6630   12.1190 N   0  0  0  0  0  0  0  0  0  0  0  0
   -0.5510  -18.8590   11.4830 C   0  0  0  0  0  0  0  0  0  0  0  0
   -0.6150  -18.2130   10.0880 C   0  0  0  0  0  0  0  0  0  0  0  0
    0.9570  -21.1590   12.2520 C   0  0  0  0  0  0  0  0  0  0  0  0
    0.0560  -22.1340   13.0240 C   0  0  0  0  0  0  0  0  0  0  0  0
   -1.1840  -22.6140   12.2610 C   0  0  0  0  0  0  0  0  0  0  0  0
   -1.7600  -24.2900   12.6710 S   0  0  0  0  0  0  0  0  0  0  0  0
   -1.5770  -24.3150   14.3900 C   0  0  0  0  0  0  0  0  0  0  0  0
   -0.5730  -24.8400   15.0520 N   0  0  0  0  0  0  0  0  0  0  0  0
   -0.8180  -24.6620   16.3900 N   0  0  0  0  0  0  0  0  0  0  0  0
   -1.9660  -24.0270   16.5200 C   0  0  0  0  0  0  0  0  0  0  0  0
   -2.4810  -23.7820   15.2670 N   0  0  0  0  0  0  0  0  0  0  0  0
   -3.7200  -23.1050   14.9770 C   0  0  0  0  0  0  0  0  0  0  0  0
   -2.5500  -23.6670   17.7730 C   0  0  0  0  0  0  0  0  0  0  0  0
   -2.5020  -22.4010   18.3160 O   0  0  0  0  0  0  0  0  0  0  0  0
   -3.1700  -22.5010   19.4930 C   0  0  0  0  0  0  0  0  0  0  0  0
   -3.6430  -23.6930   19.7650 N   0  0  0  0  0  0  0  0  0  0  0  0
   -3.2570  -24.4490   18.6790 C   0  0  0  0  0  0  0  0  0  0  0  0
   -3.6060  -25.8860   18.6020 C   0  0  0  0  0  0  0  0  0  0  0  0
  2  3  1  0
  3 11  1  0
  4  3  2  0
  4  5  1  0
  5  6  1  0
  5 10  2  0
  6  7  2  0
  7 16  1  0
  7  8  1  0
  8 12  1  0
  9  8  2  0
 10  9  1  0
 11 10  1  0
 12 13  1  0
 14 13  1  0
 14  1  1  0
 15 14  1  0
 16 15  1  0
 17  1  1  0
 17 18  1  0
 19 20  1  0
 19 18  1  0
 20 21  1  0
 21 22  2  0
 21 25  1  0
 22 23  1  0
 23 24  2  0
 24 27  1  0
 25 24  1  0
 26 25  1  0
 27 28  1  0
 27 31  2  0
 28 29  1  0
 29 30  2  0
 31 30  1  0
 32 31  1  0
M  END
$$$$
