lig_101
     RDKit          3D

 22 25  0  0  0  0  0  0  0  0999 V2000
   -5.6500    9.8690   14.8730 N   0  0  0  0  0  0  0  0  0  0  0  0
   -4.4190    9.5860   15.4180 C   0  0  0  0  0  0  0  0  0  0  0  0
   -3.5270   10.5920   15.4800 N   0  0  0  0  0  0  0  0  0  0  0  0
   -2.2910   10.3490   16.0010 C   0  0  0  0  0  0  0  0  0  0  0  0
   -1.9940    9.0960   16.4490 C   0  0  0  0  0  0  0  0  0  0  0  0
   -2.9780    8.1310   16.3310 C   0  0  0  0  0  0  0  0  0  0  0  0
   -4.1940    8.3300   15.8130 N   0  0  0  0  0  0  0  0  0  0  0  0
   -2.5130    6.8720   16.8600 C   0  0  0  0  0  0  0  0  0  0  0  0
   -3.1260    5.6370   16.9590 C   0  0  0  0  0  0  0  0  0  0  0  0
   -2.4030    4.5850   17.5350 C   0  0  0  0  0  0  0  0  0  0  0  0
   -1.0880    4.7770   18.0040 C   0  0  0  0  0  0  0  0  0  0  0  0
   -0.4700    6.0250   17.9060 C   0  0  0  0  0  0  0  0  0  0  0  0
   -1.2050    7.0420   17.3330 C   0  0  0  0  0  0  0  0  0  0  0  0
   -0.8320    8.4550   17.0940 C   0  0  0  0  0  0  0  0  0  0  0  0
    0.2320    8.9550   17.3830 O   0  0  0  0  0  0  0  0  0  0  0  0
   -1.3940   11.5160   16.0290 C   0  0  0  0  0  0  0  0  0  0  0  0
   -1.7310   12.6500   16.7940 C   0  0  0  0  0  0  0  0  0  0  0  0
   -0.9060   13.7800   16.8300 C   0  0  0  0  0  0  0  0  0  0  0  0
    0.2740   13.7950   16.0920 C   0  0  0  0  0  0  0  0  0  0  0  0
    1.2910   15.1800   16.1320 Cl  0  0  0  0  0  0  0  0  0  0  0  0
    0.6280   12.6950   15.3190 C   0  0  0  0  0  0  0  0  0  0  0  0
   -0.2030   11.5680   15.2840 C   0  0  0  0  0  0  0  0  0  0  0  0
  1  2  1  0
  2  3  2  0
  2  7  1  0
  3  4  1  0
  4 16  1  0
  4  5  2  0
  5 14  1  0
  6  5  1  0
  6  8  1  0
  7  6  2  0
  8  9  2  0
  8 13  1  0
  9 10  1  0
 10 11  2  0
 12 11  1  0
 13 12  2  0
 14 13  1  0
 14 15  2  0
 16 17  1  0
 17 18  2  0
 19 20  1  0
 19 18  1  0
 21 19  2  0
 22 21  1  0
 22 16  2  0
M  END
$$$$
