lig_046
     RDKit          3D

 26 29  0  0  0  0  0  0  0  0999 V2000
   -1.4670    8.7960   16.4920 C   0  0  0  0  0  0  0  0  0  0  0  0
   -1.9470    7.5320   16.5310 C   0  0  0  0  0  0  0  0  0  0  0  0
   -1.2380    6.5550   17.2570 C   0  0  0  0  0  0  0  0  0  0  0  0
   -1.4010    5.2730   17.4850 N   0  0  0  0  0  0  0  0  0  0  0  0
   -0.3070    4.9510   18.2630 C   0  0  0  0  0  0  0  0  0  0  0  0
    0.5290    5.9730   18.5210 N   0  0  0  0  0  0  0  0  0  0  0  0
   -0.1060    6.9800   17.8840 N   0  0  0  0  0  0  0  0  0  0  0  0
    0.3640    8.3000   17.8250 C   0  0  0  0  0  0  0  0  0  0  0  0
    1.5240    8.6210   18.4850 N   0  0  0  0  0  0  0  0  0  0  0  0
   -0.2970    9.1890   17.1350 N   0  0  0  0  0  0  0  0  0  0  0  0
   -0.0610    3.5010   18.7970 C   0  0  0  0  0  0  0  0  0  0  0  0
   -1.0360    2.5600   19.0690 C   0  0  0  0  0  0  0  0  0  0  0  0
   -0.3680    1.3980   19.5270 C   0  0  0  0  0  0  0  0  0  0  0  0
    0.9730    1.6980   19.5060 C   0  0  0  0  0  0  0  0  0  0  0  0
    1.1700    2.9670   19.0670 O   0  0  0  0  0  0  0  0  0  0  0  0
   -2.4150    9.9420   15.5510 S   0  0  0  0  0  0  0  0  0  0  0  0
   -4.1100    9.5620   16.1000 C   0  0  0  0  0  0  0  0  0  0  0  0
   -4.8590    8.7060   15.0770 C   0  0  0  0  0  0  0  0  0  0  0  0
   -5.5430    4.7140   16.5930 C   0  0  0  0  0  0  0  0  0  0  0  0
   -5.4090    5.7860   17.4760 C   0  0  0  0  0  0  0  0  0  0  0  0
   -5.1940    7.0800   16.9860 C   0  0  0  0  0  0  0  0  0  0  0  0
   -5.1140    7.3160   15.6080 C   0  0  0  0  0  0  0  0  0  0  0  0
   -5.2440    6.2370   14.7270 C   0  0  0  0  0  0  0  0  0  0  0  0
   -5.4590    4.9490   15.2190 C   0  0  0  0  0  0  0  0  0  0  0  0
   -7.0520    2.8800   16.6880 C   0  0  0  0  0  0  0  0  0  0  0  0
   -5.7550    3.4070   16.9380 O   0  0  0  0  0  0  0  0  0  0  0  0
  1  2  2  0
  1 10  1  0
  2  3  1  0
  3  4  2  0
  3  7  1  0
  4  5  1  0
  5  6  2  0
  5 11  1  0
  7  6  1  0
  8  7  1  0
  8  9  1  0
 10  8  2  0
 11 15  1  0
 11 12  2  0
 12 13  1  0
 14 13  2  0
 15 14  1  0
 16 17  1  0
 16  1  1  0
 18 22  1  0
 18 17  1  0
 19 26  1  0
 19 20  1  0
 21 20  2  0
 22 21  1  0
 23 24  1  0
 23 22  2  0
 24 19  2  0
 25 26  1  0
M  END
$$$$
