lig_435
     RDKit          3D

 29 32  0  0  0  0  0  0  0  0999 V2000
   -2.6680    9.9440   15.6200 N   0  0  0  0  0  0  0  0  0  0  0  0
   -3.0020    8.6950   16.0590 C   0  0  0  0  0  0  0  0  0  0  0  0
   -2.0430    7.9270   16.6920 N   0  0  0  0  0  0  0  0  0  0  0  0
   -2.3570    6.7340   17.0970 C   0  0  0  0  0  0  0  0  0  0  0  0
   -1.4580    5.9130   17.7320 N   0  0  0  0  0  0  0  0  0  0  0  0
   -3.6550    6.2880   16.8860 N   0  0  0  0  0  0  0  0  0  0  0  0
   -4.1510    5.1030   17.2910 N   0  0  0  0  0  0  0  0  0  0  0  0
   -5.4160    5.2160   16.8480 C   0  0  0  0  0  0  0  0  0  0  0  0
   -5.7110    6.4090   16.2210 N   0  0  0  0  0  0  0  0  0  0  0  0
   -4.5760    7.0730   16.2670 C   0  0  0  0  0  0  0  0  0  0  0  0
   -4.2310    8.3080   15.8360 N   0  0  0  0  0  0  0  0  0  0  0  0
   -1.4950   14.6970   15.2800 C   0  0  0  0  0  0  0  0  0  0  0  0
   -1.6930   15.3110   14.2400 O   0  0  0  0  0  0  0  0  0  0  0  0
   -1.4360   13.3080   15.3520 N   0  0  0  0  0  0  0  0  0  0  0  0
   -1.8650   12.5560   14.1820 C   0  0  0  0  0  0  0  0  0  0  0  0
   -1.1980   11.1880   14.0970 C   0  0  0  0  0  0  0  0  0  0  0  0
   -1.3020   10.3970   15.4040 C   0  0  0  0  0  0  0  0  0  0  0  0
   -0.8120   11.2510   16.5760 C   0  0  0  0  0  0  0  0  0  0  0  0
   -1.5030   12.6090   16.6320 C   0  0  0  0  0  0  0  0  0  0  0  0
   -1.3060   15.2840   16.4900 O   0  0  0  0  0  0  0  0  0  0  0  0
    1.1490   15.2430   16.2780 C   0  0  0  0  0  0  0  0  0  0  0  0
   -0.0810   15.9990   16.7950 C   0  0  0  0  0  0  0  0  0  0  0  0
   -0.1320   17.4400   16.2780 C   0  0  0  0  0  0  0  0  0  0  0  0
   -0.0250   16.0300   18.3310 C   0  0  0  0  0  0  0  0  0  0  0  0
   -6.4810    4.0860   17.0310 C   0  0  0  0  0  0  0  0  0  0  0  0
   -7.5790    4.1350   17.8690 C   0  0  0  0  0  0  0  0  0  0  0  0
   -8.2650    2.9050   17.7190 C   0  0  0  0  0  0  0  0  0  0  0  0
   -7.5440    2.1790   16.8020 C   0  0  0  0  0  0  0  0  0  0  0  0
   -6.4640    2.8840   16.3790 O   0  0  0  0  0  0  0  0  0  0  0  0
  1  2  1  0
  2  3  1  0
  3  4  2  0
  4  5  1  0
  6  4  1  0
  6  7  1  0
  8 25  1  0
  8  7  2  0
  9 10  2  0
  9  8  1  0
 10  6  1  0
 11  2  2  0
 11 10  1  0
 12 14  1  0
 12 20  1  0
 13 12  2  0
 14 19  1  0
 15 14  1  0
 16 15  1  0
 16 17  1  0
 17  1  1  0
 17 18  1  0
 18 19  1  0
 20 22  1  0
 21 22  1  0
 22 24  1  0
 23 22  1  0
 25 26  2  0
 27 26  1  0
 28 27  2  0
 29 28  1  0
 29 25  1  0
M  END
$$$$
