lig_014
     RDKit          3D

 29 32  0  0  0  0  0  0  0  0999 V2000
   -4.5260   15.4990   12.7470 C   0  0  0  0  0  0  0  0  0  0  0  0
   -5.4990   16.4060   13.1230 C   0  0  0  0  0  0  0  0  0  0  0  0
   -6.4760   16.6920   12.2000 C   0  0  0  0  0  0  0  0  0  0  0  0
   -7.5280   17.5870   12.4180 N   0  0  0  0  0  0  0  0  0  0  0  0
   -7.7960   18.3320   13.5410 C   0  0  0  0  0  0  0  0  0  0  0  0
   -9.0350   19.1790   13.3990 C   0  0  0  0  0  0  0  0  0  0  0  0
   -7.1520   18.3370   14.5840 O   0  0  0  0  0  0  0  0  0  0  0  0
   -6.5110   16.1320   10.9800 N   0  0  0  0  0  0  0  0  0  0  0  0
   -5.5320   15.2570   10.6750 C   0  0  0  0  0  0  0  0  0  0  0  0
   -5.5370   14.6350    9.3690 N   0  0  0  0  0  0  0  0  0  0  0  0
   -4.5610   13.7410    9.0190 N   0  0  0  0  0  0  0  0  0  0  0  0
   -4.8550   13.3640    7.7750 C   0  0  0  0  0  0  0  0  0  0  0  0
   -3.9910   12.3850    7.0720 C   0  0  0  0  0  0  0  0  0  0  0  0
   -6.0150   13.9960    7.2970 C   0  0  0  0  0  0  0  0  0  0  0  0
   -6.4450   14.8090    8.3250 C   0  0  0  0  0  0  0  0  0  0  0  0
   -7.6250   15.7080    8.3710 C   0  0  0  0  0  0  0  0  0  0  0  0
   -4.5400   14.9240   11.5230 N   0  0  0  0  0  0  0  0  0  0  0  0
   -2.2460   13.3350   14.6400 C   0  0  0  0  0  0  0  0  0  0  0  0
   -1.4000   14.2280   15.2910 C   0  0  0  0  0  0  0  0  0  0  0  0
   -1.5800   15.5940   15.1120 C   0  0  0  0  0  0  0  0  0  0  0  0
   -2.6010   16.0390   14.2820 C   0  0  0  0  0  0  0  0  0  0  0  0
   -3.4170   15.1050   13.6470 C   0  0  0  0  0  0  0  0  0  0  0  0
   -3.2340   13.7690   13.8270 N   0  0  0  0  0  0  0  0  0  0  0  0
   -1.6790   10.0890   15.5720 C   0  0  0  0  0  0  0  0  0  0  0  0
   -2.7750   11.1550   15.7650 C   0  0  0  0  0  0  0  0  0  0  0  0
   -2.0710   11.9490   14.7960 N   0  0  0  0  0  0  0  0  0  0  0  0
   -0.8340   11.2640   15.0390 C   0  0  0  0  0  0  0  0  0  0  0  0
   -1.2390    8.0040   16.7320 C   0  0  0  0  0  0  0  0  0  0  0  0
   -1.1720    9.4240   16.7550 O   0  0  0  0  0  0  0  0  0  0  0  0
  1  2  1  0
  1 22  1  0
  3  4  1  0
  3  2  2  0
  4  5  1  0
  5  7  2  0
  6  5  1  0
  8  3  1  0
  9  8  2  0
  9 17  1  0
 10  9  1  0
 11 10  1  0
 12 11  2  0
 13 12  1  0
 14 12  1  0
 14 15  2  0
 15 16  1  0
 15 10  1  0
 17  1  2  0
 18 26  1  0
 18 19  2  0
 20 19  1  0
 21 20  2  0
 22 23  2  0
 22 21  1  0
 23 18  1  0
 24 25  1  0
 24 29  1  0
 26 27  1  0
 26 25  1  0
 27 24  1  0
 28 29  1  0
M  END
$$$$
