lig_326
     RDKit          3D

 33 37  0  0  1  0  0  0  0  0999 V2000
    0.2000  -16.3350   11.1290 O   0  0  0  0  0  0  0  0  0  0  0  0
    1.1100  -15.5510   10.8910 C   0  0  0  0  0  0  0  0  0  0  0  0
    2.3260  -15.5560   11.5430 N   0  0  0  0  0  0  0  0  0  0  0  0
    0.9550  -14.5260    9.8260 C   0  0  0  0  0  0  0  0  0  0  0  0
    1.6720  -14.6050    8.6220 C   0  0  0  0  0  0  0  0  0  0  0  0
    1.5090  -13.6310    7.6210 C   0  0  0  0  0  0  0  0  0  0  0  0
    0.6310  -12.5590    7.8030 C   0  0  0  0  0  0  0  0  0  0  0  0
   -0.0670  -12.4690    8.9960 C   0  0  0  0  0  0  0  0  0  0  0  0
    0.1020  -13.4440   10.0060 C   0  0  0  0  0  0  0  0  0  0  0  0
   -0.7680  -13.1070   11.2040 C   0  0  0  0  0  0  0  0  0  0  0  0
   -1.4620  -11.8400   10.7440 C   0  0  0  0  0  0  0  0  0  0  0  0
   -2.3910  -11.0770   11.4320 C   0  0  0  0  0  0  0  0  0  0  0  0
   -2.8940   -9.9370   10.8050 C   0  0  0  0  0  0  0  0  0  0  0  0
   -2.4680   -9.5770    9.5150 C   0  0  0  0  0  0  0  0  0  0  0  0
   -1.5290  -10.3540    8.8280 C   0  0  0  0  0  0  0  0  0  0  0  0
   -1.0280  -11.4860    9.4490 C   0  0  0  0  0  0  0  0  0  0  0  0
    2.6570  -16.5220   12.5770 C   0  0  0  0  0  0  0  0  0  0  0  0
    1.8590  -16.2850   13.8600 C   0  0  0  0  0  0  0  0  0  0  0  0
    1.9680  -17.4360   14.8690 C   0  0  0  0  0  0  0  0  0  0  0  0
    1.4360  -18.6960   14.3320 N   0  0  0  0  0  0  0  0  0  0  0  0
    1.5890  -19.8220   15.2830 C   0  0  0  0  0  0  0  0  0  0  0  0
    0.9920  -21.1460   14.7440 C   0  0  0  0  0  0  0  0  0  0  0  0
   -0.4280  -20.9440   14.3970 N   0  0  0  0  0  0  0  0  0  0  0  0
   -0.6170  -19.8500   13.4210 C   0  0  0  0  0  0  0  0  0  0  0  0
    0.0040  -18.5460   13.9780 C   0  0  0  0  0  0  0  0  0  0  0  0
   -1.1640  -22.1130   14.1360 C   0  0  0  0  0  0  0  0  0  0  0  0
   -1.1630  -22.5220   12.7870 C   0  0  0  0  0  0  0  0  0  0  0  0
   -1.8440  -23.6610   12.3600 C   0  0  0  0  0  0  0  0  0  0  0  0
   -2.5490  -24.4240   13.2810 C   0  0  0  0  0  0  0  0  0  0  0  0
   -2.5710  -24.0480   14.6270 C   0  0  0  0  0  0  0  0  0  0  0  0
   -3.4790  -25.0640   15.7010 Cl  0  0  0  0  0  0  0  0  0  0  0  0
   -1.8850  -22.8980   15.0670 C   0  0  0  0  0  0  0  0  0  0  0  0
   -1.9390  -22.4770   16.7520 Cl  0  0  0  0  0  0  0  0  0  0  0  0
  2  1  2  0
  2  3  1  0
  3 17  1  0
  4  9  1  0
  4  2  1  0
  5  4  2  0
  6  7  2  0
  6  5  1  0
  7  8  1  0
  8 16  2  0
  8  9  1  0
  9 10  1  0
 11 10  2  0
 11 12  1  0
 13 12  2  0
 14 13  1  0
 15 16  1  0
 15 14  2  0
 16 11  1  0
 17 18  1  0
 18 19  1  0
 20 19  1  0
 20 21  1  0
 22 21  1  0
 23 22  1  0
 24 25  1  0
 24 23  1  0
 25 20  1  0
 26 23  1  0
 26 32  1  0
 27 26  2  0
 28 27  1  0
 28 29  2  0
 29 30  1  0
 30 32  2  0
 30 31  1  0
 32 33  1  0
M  END
$$$$
