lig_241
     RDKit          3D

 27 30  0  0  1  0  0  0  0  0999 V2000
    0.8790    2.3810   19.3870 C   0  0  0  0  0  0  0  0  0  0  0  0
   -0.0840    3.3500   18.7950 C   0  0  0  0  0  0  0  0  0  0  0  0
    0.0630    4.7080   18.6120 C   0  0  0  0  0  0  0  0  0  0  0  0
   -1.0800    5.3070   18.0070 C   0  0  0  0  0  0  0  0  0  0  0  0
   -1.1990    6.6240   17.7230 N   0  0  0  0  0  0  0  0  0  0  0  0
   -2.3400    7.0010   17.1560 C   0  0  0  0  0  0  0  0  0  0  0  0
   -2.4250    8.3590   16.8650 N   0  0  0  0  0  0  0  0  0  0  0  0
   -3.3560    6.1890   16.8660 N   0  0  0  0  0  0  0  0  0  0  0  0
   -3.2450    4.8640   17.1470 C   0  0  0  0  0  0  0  0  0  0  0  0
   -2.0820    4.3830   17.7330 C   0  0  0  0  0  0  0  0  0  0  0  0
   -1.6070    2.8110   18.2390 S   0  0  0  0  0  0  0  0  0  0  0  0
   -4.3860    3.9830   16.7830 C   0  0  0  0  0  0  0  0  0  0  0  0
   -4.1880    2.8380   16.3860 O   0  0  0  0  0  0  0  0  0  0  0  0
   -5.6540    4.5110   16.8960 N   0  0  0  0  0  0  0  0  0  0  0  0
   -6.9130    3.7800   16.8380 C   0  0  0  0  0  0  0  0  0  0  0  0
   -7.3660    4.6130   18.0510 C   0  0  0  0  0  0  0  0  0  0  0  0
   -6.1730    5.5490   17.7720 C   0  0  0  0  0  0  0  0  0  0  0  0
   -8.6840    5.1980   17.9790 O   0  0  0  0  0  0  0  0  0  0  0  0
   -3.0020    8.6740   15.5610 C   0  0  1  0  0  0  0  0  0  0  0  0
   -4.5250    8.5300   15.6010 C   0  0  0  0  0  0  0  0  0  0  0  0
   -2.6260   10.0970   15.1890 C   0  0  0  0  0  0  0  0  0  0  0  0
   -1.5780   10.3440   14.3020 C   0  0  0  0  0  0  0  0  0  0  0  0
   -1.1790   11.5800   13.9140 N   0  0  0  0  0  0  0  0  0  0  0  0
   -1.8590   12.6270   14.4370 C   0  0  0  0  0  0  0  0  0  0  0  0
   -2.9110   12.4870   15.3230 C   0  0  0  0  0  0  0  0  0  0  0  0
   -3.5450   13.5610   15.8080 F   0  0  0  0  0  0  0  0  0  0  0  0
   -3.3020   11.2120   15.7060 C   0  0  0  0  0  0  0  0  0  0  0  0
  2  1  1  0
  3  2  2  0
  4  3  1  0
  5  4  2  0
  6  5  1  0
  7  6  1  0
  8  9  1  0
  8  6  2  0
  9 10  2  0
 10  4  1  0
 10 11  1  0
 11  2  1  0
 12 14  1  0
 12  9  1  0
 13 12  2  0
 14 17  1  0
 15 14  1  0
 15 16  1  0
 16 18  1  0
 17 16  1  0
 19 20  1  1
 19  7  1  0
 21 19  1  0
 21 27  1  0
 22 21  2  0
 23 22  1  0
 23 24  2  0
 24 25  1  0
 25 27  2  0
 25 26  1  0
M  END
$$$$
