lig_357
     RDKit          3D

 25 28  0  0  0  0  0  0  0  0999 V2000
    0.4430  -17.4090   14.5360 C   0  0  0  0  0  0  0  0  0  0  0  0
    3.1450  -16.9960   12.7700 C   0  0  0  0  0  0  0  0  0  0  0  0
    1.8520  -16.2790   12.6400 C   0  0  0  0  0  0  0  0  0  0  0  0
    1.7060  -15.3330   11.7080 N   0  0  0  0  0  0  0  0  0  0  0  0
    0.4310  -14.8860   11.8470 N   0  0  0  0  0  0  0  0  0  0  0  0
   -0.2100  -15.5390   12.8740 C   0  0  0  0  0  0  0  0  0  0  0  0
    0.6720  -16.4610   13.4050 C   0  0  0  0  0  0  0  0  0  0  0  0
   -0.0840  -13.8660   10.9980 C   0  0  0  0  0  0  0  0  0  0  0  0
    0.3520  -13.7330    9.6720 C   0  0  0  0  0  0  0  0  0  0  0  0
   -0.1720  -12.7220    8.8610 C   0  0  0  0  0  0  0  0  0  0  0  0
   -1.1280  -11.8410    9.3640 C   0  0  0  0  0  0  0  0  0  0  0  0
   -1.5640  -11.9660   10.6810 C   0  0  0  0  0  0  0  0  0  0  0  0
   -1.0460  -12.9740   11.4970 C   0  0  0  0  0  0  0  0  0  0  0  0
    0.7450  -18.7850   14.1200 N   0  0  0  0  0  0  0  0  0  0  0  0
    1.1370  -19.6580   15.2510 C   0  0  0  0  0  0  0  0  0  0  0  0
    0.0090  -20.5230   15.8610 C   0  0  0  0  0  0  0  0  0  0  0  0
   -0.6570  -21.3440   14.8360 N   0  0  0  0  0  0  0  0  0  0  0  0
   -0.5040  -20.8980   13.4430 C   0  0  0  0  0  0  0  0  0  0  0  0
   -0.4060  -19.3560   13.3860 C   0  0  0  0  0  0  0  0  0  0  0  0
   -1.2090  -22.5740   15.1550 C   0  0  0  0  0  0  0  0  0  0  0  0
   -0.4240  -23.7250   15.3330 C   0  0  0  0  0  0  0  0  0  0  0  0
   -0.9870  -24.9680   15.6500 C   0  0  0  0  0  0  0  0  0  0  0  0
   -2.3620  -25.0950   15.7930 C   0  0  0  0  0  0  0  0  0  0  0  0
   -3.1700  -23.9790   15.6180 C   0  0  0  0  0  0  0  0  0  0  0  0
   -2.5970  -22.7400   15.3030 C   0  0  0  0  0  0  0  0  0  0  0  0
  3  2  1  0
  3  7  1  0
  4  5  1  0
  4  3  2  0
  5  6  1  0
  6  7  2  0
  7  1  1  0
  8 13  1  0
  8  5  1  0
  9  8  2  0
 10 11  2  0
 10  9  1  0
 11 12  1  0
 12 13  2  0
 14  1  1  0
 14 15  1  0
 15 16  1  0
 17 20  1  0
 17 16  1  0
 18 17  1  0
 19 18  1  0
 19 14  1  0
 20 25  1  0
 20 21  2  0
 21 22  1  0
 22 23  2  0
 24 23  1  0
 25 24  2  0
M  END
$$$$
