lig_206
     RDKit          3D

 23 25  0  0  0  0  0  0  0  0999 V2000
   -2.7680    6.7020   16.8120 C   0  0  0  0  0  0  0  0  0  0  0  0
   -1.6460    6.2080   17.3890 N   0  0  0  0  0  0  0  0  0  0  0  0
   -0.5980    7.0180   17.4980 C   0  0  0  0  0  0  0  0  0  0  0  0
    0.5370    6.5250   18.0970 N   0  0  0  0  0  0  0  0  0  0  0  0
   -0.5600    8.2630   17.0310 N   0  0  0  0  0  0  0  0  0  0  0  0
   -1.6740    8.7440   16.4270 C   0  0  0  0  0  0  0  0  0  0  0  0
   -2.8310    7.9900   16.3010 C   0  0  0  0  0  0  0  0  0  0  0  0
   -6.0460    3.9090   16.7140 C   0  0  0  0  0  0  0  0  0  0  0  0
   -4.8930    3.6580   15.9730 C   0  0  0  0  0  0  0  0  0  0  0  0
   -3.8260    4.5660   15.9970 C   0  0  0  0  0  0  0  0  0  0  0  0
   -3.8830    5.7370   16.7710 C   0  0  0  0  0  0  0  0  0  0  0  0
   -5.0590    5.9830   17.4970 C   0  0  0  0  0  0  0  0  0  0  0  0
   -6.1230    5.0780   17.4710 C   0  0  0  0  0  0  0  0  0  0  0  0
   -8.0980    3.4000   17.8010 C   0  0  0  0  0  0  0  0  0  0  0  0
   -7.1530    3.1100   16.7780 O   0  0  0  0  0  0  0  0  0  0  0  0
   -1.5280   10.1300   15.9430 C   0  0  0  0  0  0  0  0  0  0  0  0
   -1.5840   11.2040   16.8490 C   0  0  0  0  0  0  0  0  0  0  0  0
   -1.4490   12.5250   16.4150 C   0  0  0  0  0  0  0  0  0  0  0  0
   -1.2460   12.7960   15.0640 C   0  0  0  0  0  0  0  0  0  0  0  0
   -1.1700   11.7480   14.1510 C   0  0  0  0  0  0  0  0  0  0  0  0
   -1.3040   10.4260   14.5860 C   0  0  0  0  0  0  0  0  0  0  0  0
   -4.0110    8.5040   15.6840 C   0  0  0  0  0  0  0  0  0  0  0  0
   -4.9680    8.9250   15.1810 N   0  0  0  0  0  0  0  0  0  0  0  0
  1  2  2  0
  2  3  1  0
  3  4  1  0
  5  3  2  0
  6  5  1  0
  7  6  2  0
  7  1  1  0
  8 15  1  0
  8 13  2  0
  9 10  2  0
  9  8  1  0
 10 11  1  0
 11  1  1  0
 11 12  2  0
 13 12  1  0
 15 14  1  0
 16  6  1  0
 16 17  2  0
 18 17  1  0
 19 18  2  0
 20 21  2  0
 20 19  1  0
 21 16  1  0
 22  7  1  0
 23 22  3  0
M  END
$$$$
