lig_084
     RDKit          3D

 35 39  0  0  1  0  0  0  0  0999 V2000
   -1.4120  -22.9900   12.5250 C   0  0  2  0  0  0  0  0  0  0  0  0
   -2.5250  -22.2540   13.0340 O   0  0  0  0  0  0  0  0  0  0  0  0
   -1.4010  -24.3910   13.1560 C   0  0  0  0  0  0  0  0  0  0  0  0
   -0.2330  -24.5660   14.1390 C   0  0  0  0  0  0  0  0  0  0  0  0
   -2.5840  -22.8400   17.0960 N   0  0  0  0  0  0  0  0  0  0  0  0
   -1.4690  -22.2670   16.3290 C   0  0  0  0  0  0  0  0  0  0  0  0
   -0.3110  -23.2850   16.2150 C   0  0  0  0  0  0  0  0  0  0  0  0
   -0.6610  -24.5620   15.5480 N   0  0  0  0  0  0  0  0  0  0  0  0
   -2.1060  -24.8520   15.6960 C   0  0  0  0  0  0  0  0  0  0  0  0
   -2.7550  -24.3040   16.9910 C   0  0  0  0  0  0  0  0  0  0  0  0
   -3.4670  -20.8110   18.1880 C   0  0  0  0  0  0  0  0  0  0  0  0
   -4.5430  -20.0660   18.6890 C   0  0  0  0  0  0  0  0  0  0  0  0
   -5.8440  -20.5180   18.5100 C   0  0  0  0  0  0  0  0  0  0  0  0
   -6.0620  -21.7140   17.8360 C   0  0  0  0  0  0  0  0  0  0  0  0
   -4.9790  -22.4650   17.3610 C   0  0  0  0  0  0  0  0  0  0  0  0
   -3.6440  -22.0580   17.5430 C   0  0  0  0  0  0  0  0  0  0  0  0
   -2.3050  -19.1890   19.3160 C   0  0  0  0  0  0  0  0  0  0  0  0
   -2.2190  -20.2530   18.3660 O   0  0  0  0  0  0  0  0  0  0  0  0
   -0.1060  -22.2310   12.8100 C   0  0  0  0  0  0  0  0  0  0  0  0
    0.0750  -21.0680   11.9610 N   0  0  0  0  0  0  0  0  0  0  0  0
   -0.4450  -19.8460   12.3430 C   0  0  0  0  0  0  0  0  0  0  0  0
   -1.0120  -19.6580   13.4120 O   0  0  0  0  0  0  0  0  0  0  0  0
   -0.3310  -18.7440   11.3470 C   0  0  0  0  0  0  0  0  0  0  0  0
   -0.5380  -18.9720    9.9690 C   0  0  0  0  0  0  0  0  0  0  0  0
   -0.4280  -17.9260    9.0440 C   0  0  0  0  0  0  0  0  0  0  0  0
   -0.1030  -16.6630    9.5100 C   0  0  0  0  0  0  0  0  0  0  0  0
    0.1220  -16.4420   10.8860 C   0  0  0  0  0  0  0  0  0  0  0  0
    0.0170  -17.4680   11.8110 C   0  0  0  0  0  0  0  0  0  0  0  0
    0.4760  -14.9910   11.1370 C   0  0  0  0  0  0  0  0  0  0  0  0
    0.4210  -14.4100    9.7380 C   0  0  0  0  0  0  0  0  0  0  0  0
    0.6580  -13.1030    9.3460 C   0  0  0  0  0  0  0  0  0  0  0  0
    0.5500  -12.7980    7.9880 C   0  0  0  0  0  0  0  0  0  0  0  0
    0.2120  -13.7910    7.0510 C   0  0  0  0  0  0  0  0  0  0  0  0
   -0.0250  -15.1080    7.4570 C   0  0  0  0  0  0  0  0  0  0  0  0
    0.0810  -15.4120    8.8040 C   0  0  0  0  0  0  0  0  0  0  0  0
  1 19  1  0
  1  2  1  1
  1  3  1  0
  3  4  1  0
  4  8  1  0
  5 16  1  0
  6  5  1  0
  7  6  1  0
  8  9  1  0
  8  7  1  0
  9 10  1  0
 10  5  1  0
 11 18  1  0
 11 12  2  0
 13 12  1  0
 14 13  2  0
 15 16  2  0
 15 14  1  0
 16 11  1  0
 18 17  1  0
 20 21  1  0
 20 19  1  0
 21 22  2  0
 23 28  2  0
 23 21  1  0
 24 23  1  0
 25 26  1  0
 25 24  2  0
 26 27  2  0
 27 29  1  0
 27 28  1  0
 30 29  2  0
 31 30  1  0
 32 31  2  0
 33 34  2  0
 33 32  1  0
 35 34  1  0
 35 26  1  0
 35 30  1  0
M  END
$$$$
