lig_015
     RDKit          3D

 25 27  0  0  1  0  0  0  0  0999 V2000
   20.2620   17.9500   12.4290 C   0  0  0  0  0  0  0  0  0  0  0  0
   19.6310   19.1020   12.1220 N   0  0  0  0  0  0  0  0  0  0  0  0
   20.0550   20.2250   12.7310 C   0  0  0  0  0  0  0  0  0  0  0  0
   19.4560   21.4310   12.4130 N   0  0  0  0  0  0  0  0  0  0  0  0
   19.7600   22.5690   13.2860 C   0  0  0  0  0  0  0  0  0  0  0  0
   19.1800   23.8750   12.6970 C   0  0  0  0  0  0  0  0  0  0  0  0
   17.7330   23.8640   12.4030 N   0  0  0  0  0  0  0  0  0  0  0  0
   17.2040   22.4890   12.3610 C   0  0  0  0  0  0  0  0  0  0  0  0
   18.1430   21.4090   11.7510 C   0  0  1  0  0  0  0  0  0  0  0  0
   18.3370   21.6240   10.2470 C   0  0  0  0  0  0  0  0  0  0  0  0
   21.0700   20.2260   13.6170 N   0  0  0  0  0  0  0  0  0  0  0  0
   21.6770   19.0510   13.8890 C   0  0  0  0  0  0  0  0  0  0  0  0
   21.3090   17.8700   13.3110 C   0  0  0  0  0  0  0  0  0  0  0  0
   21.9350   16.7230   13.6010 F   0  0  0  0  0  0  0  0  0  0  0  0
   19.8770   16.7710   11.8180 O   0  0  0  0  0  0  0  0  0  0  0  0
   18.6870   15.7700   10.0350 C   0  0  0  0  0  0  0  0  0  0  0  0
   19.7340   16.8280   10.3880 C   0  0  2  0  0  0  0  0  0  0  0  0
   21.0890   16.5220    9.7200 C   0  0  0  0  0  0  0  0  0  0  0  0
   21.4590   17.4600    8.5950 C   0  0  0  0  0  0  0  0  0  0  0  0
   21.1870   18.8340    8.6850 C   0  0  0  0  0  0  0  0  0  0  0  0
   21.5330   19.7010    7.6460 C   0  0  0  0  0  0  0  0  0  0  0  0
   22.1590   19.2020    6.5050 C   0  0  0  0  0  0  0  0  0  0  0  0
   22.4340   17.8440    6.4150 C   0  0  0  0  0  0  0  0  0  0  0  0
   23.0380   17.3650    5.3190 F   0  0  0  0  0  0  0  0  0  0  0  0
   22.0930   16.9720    7.4450 C   0  0  0  0  0  0  0  0  0  0  0  0
  1 13  2  0
  2  1  1  0
  2  3  2  0
  3 11  1  0
  4  3  1  0
  4  5  1  0
  6  5  1  0
  7  6  1  0
  8  7  1  0
  9 10  1  6
  9  8  1  0
  9  4  1  0
 11 12  2  0
 13 14  1  0
 13 12  1  0
 15  1  1  0
 17 16  1  6
 17 15  1  0
 18 17  1  0
 19 20  2  0
 19 18  1  0
 21 20  1  0
 22 21  2  0
 23 22  1  0
 23 25  2  0
 24 23  1  0
 25 19  1  0
M  END
$$$$
