lig_032
     RDKit          3D

 32 35  0  0  0  0  0  0  0  0999 V2000
    0.7260  -19.8970   13.6580 C   0  0  0  0  0  0  0  0  0  0  0  0
    1.2740  -18.4790   13.8890 C   0  0  0  0  0  0  0  0  0  0  0  0
    0.7980  -15.2120   11.1690 N   0  0  0  0  0  0  0  0  0  0  0  0
    2.1660  -15.4970   11.6460 C   0  0  0  0  0  0  0  0  0  0  0  0
    2.1060  -16.3910   12.9080 C   0  0  0  0  0  0  0  0  0  0  0  0
    1.3800  -17.6650   12.6690 N   0  0  0  0  0  0  0  0  0  0  0  0
    0.0240  -17.3500   12.1510 C   0  0  0  0  0  0  0  0  0  0  0  0
    0.0470  -16.4550   10.8890 C   0  0  0  0  0  0  0  0  0  0  0  0
   -0.3620  -12.1940    9.2540 C   0  0  0  0  0  0  0  0  0  0  0  0
    0.3440  -12.3780    8.0540 C   0  0  0  0  0  0  0  0  0  0  0  0
    1.1820  -13.4750    7.8840 C   0  0  0  0  0  0  0  0  0  0  0  0
    1.3360  -14.4070    8.9100 C   0  0  0  0  0  0  0  0  0  0  0  0
    0.6600  -14.2630   10.1340 C   0  0  0  0  0  0  0  0  0  0  0  0
   -0.1950  -13.1390   10.2900 C   0  0  0  0  0  0  0  0  0  0  0  0
   -1.0240  -12.9090   11.8060 Cl  0  0  0  0  0  0  0  0  0  0  0  0
   -2.7160  -11.3380    9.4880 C   0  0  0  0  0  0  0  0  0  0  0  0
   -1.2430  -10.9720    9.3830 C   0  0  0  0  0  0  0  0  0  0  0  0
    1.3840  -20.9460   14.5600 C   0  0  0  0  0  0  0  0  0  0  0  0
    1.6810  -22.2630   13.8390 C   0  0  0  0  0  0  0  0  0  0  0  0
    0.8920  -23.4470   14.3970 C   0  0  0  0  0  0  0  0  0  0  0  0
   -0.2440  -23.0050   15.1690 N   0  0  0  0  0  0  0  0  0  0  0  0
   -1.2230  -23.8580   15.6220 C   0  0  0  0  0  0  0  0  0  0  0  0
   -1.1950  -25.0760   15.4880 O   0  0  0  0  0  0  0  0  0  0  0  0
   -2.3200  -23.1490   16.2800 C   0  0  0  0  0  0  0  0  0  0  0  0
   -2.2420  -21.9360   16.9360 C   0  0  0  0  0  0  0  0  0  0  0  0
   -3.5060  -21.6740   17.3910 N   0  0  0  0  0  0  0  0  0  0  0  0
   -3.9790  -20.5820   18.1130 C   0  0  0  0  0  0  0  0  0  0  0  0
   -5.2770  -20.5360   18.4570 C   0  0  0  0  0  0  0  0  0  0  0  0
   -6.1490  -21.6330   18.0610 C   0  0  0  0  0  0  0  0  0  0  0  0
   -5.6840  -22.6870   17.3620 C   0  0  0  0  0  0  0  0  0  0  0  0
   -4.3090  -22.7410   16.9950 C   0  0  0  0  0  0  0  0  0  0  0  0
   -3.6200  -23.6420   16.3270 N   0  0  0  0  0  0  0  0  0  0  0  0
  1  2  1  0
  1 18  1  0
  3  4  1  0
  4  5  1  0
  6  5  1  0
  6  2  1  0
  7  6  1  0
  8  3  1  0
  8  7  1  0
  9 17  1  0
  9 14  2  0
 10  9  1  0
 11 10  2  0
 11 12  1  0
 12 13  2  0
 13 14  1  0
 13  3  1  0
 14 15  1  0
 17 16  1  0
 19 20  1  0
 19 18  1  0
 20 21  1  0
 21 22  1  0
 22 24  1  0
 23 22  2  0
 24 32  1  0
 24 25  2  0
 25 26  1  0
 26 27  1  0
 27 28  2  0
 29 28  1  0
 30 29  2  0
 31 30  1  0
 31 26  1  0
 32 31  2  0
M  END
$$$$
