lig_139
     RDKit          3D

 22 24  0  0  1  0  0  0  0  0999 V2000
    0.5010  -14.8640   11.3840 C   0  0  1  0  0  0  0  0  0  0  0  0
    0.4580  -15.0630    9.8600 C   0  0  0  0  0  0  0  0  0  0  0  0
    0.6430  -13.7240    9.1440 C   0  0  0  0  0  0  0  0  0  0  0  0
   -0.2030  -12.6000    9.6940 C   0  0  0  0  0  0  0  0  0  0  0  0
   -0.3710  -11.4010    8.9800 C   0  0  0  0  0  0  0  0  0  0  0  0
   -1.1520  -10.3620    9.4820 C   0  0  0  0  0  0  0  0  0  0  0  0
   -1.7670  -10.4900   10.7210 C   0  0  0  0  0  0  0  0  0  0  0  0
   -1.5950  -11.6580   11.4590 C   0  0  0  0  0  0  0  0  0  0  0  0
   -0.8060  -12.7120   10.9640 C   0  0  0  0  0  0  0  0  0  0  0  0
   -0.6810  -13.9650   11.8040 C   0  0  0  0  0  0  0  0  0  0  0  0
    0.2110  -11.1680    7.7650 O   0  0  0  0  0  0  0  0  0  0  0  0
    0.6050  -16.1740   12.0810 N   0  0  0  0  0  0  0  0  0  0  0  0
    1.9440  -16.4430   12.6370 C   0  0  0  0  0  0  0  0  0  0  0  0
    2.0660  -17.8390   14.7700 C   0  0  0  0  0  0  0  0  0  0  0  0
    1.9750  -16.4410   14.1740 C   0  0  0  0  0  0  0  0  0  0  0  0
    0.1470  -17.3020   11.2360 C   0  0  0  0  0  0  0  0  0  0  0  0
   -0.8560  -18.2300   11.9460 C   0  0  0  0  0  0  0  0  0  0  0  0
   -0.1910  -19.4900   12.4270 C   0  0  0  0  0  0  0  0  0  0  0  0
    1.0160  -20.0250   12.0210 C   0  0  0  0  0  0  0  0  0  0  0  0
    1.3260  -21.2380   12.7010 C   0  0  0  0  0  0  0  0  0  0  0  0
    0.3470  -21.5880   13.6030 C   0  0  0  0  0  0  0  0  0  0  0  0
   -0.9360  -20.4570   13.6300 S   0  0  0  0  0  0  0  0  0  0  0  0
  1 10  1  0
  1 12  1  1
  2  1  1  0
  3  4  1  0
  3  2  1  0
  4  9  1  0
  5  6  1  0
  5  4  2  0
  6  7  2  0
  7  8  1  0
  9  8  2  0
  9 10  1  0
 11  5  1  0
 12 13  1  0
 13 15  1  0
 15 14  1  0
 16 17  1  0
 16 12  1  0
 17 18  1  0
 18 22  1  0
 19 18  2  0
 19 20  1  0
 20 21  2  0
 21 22  1  0
M  END
$$$$
