lig_434
     RDKit          3D

 34 38  0  0  1  0  0  0  0  0999 V2000
   -1.1990  -23.4580   16.0560 N   0  0  0  0  0  0  0  0  0  0  0  0
   -2.3700  -23.9360   16.6680 C   0  0  0  0  0  0  0  0  0  0  0  0
   -2.6410  -25.1340   16.7520 O   0  0  0  0  0  0  0  0  0  0  0  0
   -3.4070  -22.9950   17.1430 C   0  0  0  0  0  0  0  0  0  0  0  0
   -4.7100  -23.1590   16.6500 C   0  0  0  0  0  0  0  0  0  0  0  0
   -5.7370  -22.3280   17.1000 C   0  0  0  0  0  0  0  0  0  0  0  0
   -5.4680  -21.3470   18.0520 C   0  0  0  0  0  0  0  0  0  0  0  0
   -4.1740  -21.1990   18.5590 C   0  0  0  0  0  0  0  0  0  0  0  0
   -3.1370  -22.0240   18.1060 C   0  0  0  0  0  0  0  0  0  0  0  0
   -1.4740  -21.8600   18.7620 S   0  0  0  0  0  0  0  0  0  0  0  0
   -1.4890  -20.5740   19.8130 O   0  0  0  0  0  0  0  0  0  0  0  0
   -0.8610  -21.2460   17.1710 C   0  0  0  0  0  0  0  0  0  0  0  0
   -0.4050  -19.9180   17.0980 C   0  0  0  0  0  0  0  0  0  0  0  0
    0.1670  -19.4210   15.9300 C   0  0  0  0  0  0  0  0  0  0  0  0
    0.3150  -20.2550   14.8230 C   0  0  0  0  0  0  0  0  0  0  0  0
   -0.1480  -21.5780   14.8840 C   0  0  0  0  0  0  0  0  0  0  0  0
   -0.7540  -22.0920   16.0470 C   0  0  0  0  0  0  0  0  0  0  0  0
    0.9360  -19.6960   13.5900 C   0  0  0  0  0  0  0  0  0  0  0  0
    0.9620  -20.3610   12.5620 O   0  0  0  0  0  0  0  0  0  0  0  0
    1.4240  -18.4110   13.6840 N   0  0  0  0  0  0  0  0  0  0  0  0
    1.9600  -17.7120   12.5250 C   0  0  2  0  0  0  0  0  0  0  0  0
    3.4600  -17.4380   12.6730 C   0  0  0  0  0  0  0  0  0  0  0  0
    1.1590  -16.4420   12.2980 C   0  0  0  0  0  0  0  0  0  0  0  0
    0.2090  -15.9920   13.2260 C   0  0  0  0  0  0  0  0  0  0  0  0
   -0.5390  -14.8380   12.9800 C   0  0  0  0  0  0  0  0  0  0  0  0
   -0.3640  -14.1090   11.7940 C   0  0  0  0  0  0  0  0  0  0  0  0
   -1.1090  -12.9480   11.5310 C   0  0  0  0  0  0  0  0  0  0  0  0
   -0.9260  -12.2360   10.3450 C   0  0  0  0  0  0  0  0  0  0  0  0
    0.0040  -12.6760    9.4070 C   0  0  0  0  0  0  0  0  0  0  0  0
    0.7530  -13.8270    9.6540 C   0  0  0  0  0  0  0  0  0  0  0  0
    0.5810  -14.5550   10.8430 C   0  0  0  0  0  0  0  0  0  0  0  0
    1.3270  -15.7170   11.1070 C   0  0  0  0  0  0  0  0  0  0  0  0
   -0.7380  -24.6340   13.8990 C   0  0  0  0  0  0  0  0  0  0  0  0
   -0.3760  -24.4660   15.3700 C   0  0  0  0  0  0  0  0  0  0  0  0
  1  2  1  0
  2  3  2  0
  2  4  1  0
  4  9  1  0
  5  6  1  0
  5  4  2  0
  6  7  2  0
  7  8  1  0
  9  8  2  0
  9 10  1  0
 10 11  2  0
 12 10  1  0
 13 12  1  0
 14 13  2  0
 15 16  2  0
 15 14  1  0
 16 17  1  0
 17  1  1  0
 17 12  2  0
 18 20  1  0
 18 15  1  0
 19 18  2  0
 21 22  1  1
 21 20  1  0
 23 21  1  0
 23 24  1  0
 25 24  2  0
 26 25  1  0
 27 26  2  0
 28 27  1  0
 29 30  1  0
 29 28  2  0
 30 31  2  0
 31 32  1  0
 31 26  1  0
 32 23  2  0
 33 34  1  0
 34  1  1  0
M  END
$$$$
