lig_163
     RDKit          3D

 35 38  0  0  0  0  0  0  0  0999 V2000
   -2.8620   10.4230   15.7000 C   0  0  0  0  0  0  0  0  0  0  0  0
   -4.0780   10.2850   15.5890 O   0  0  0  0  0  0  0  0  0  0  0  0
   -1.9750    9.4670   16.1560 N   0  0  0  0  0  0  0  0  0  0  0  0
   -2.2510    8.1930   16.5720 C   0  0  0  0  0  0  0  0  0  0  0  0
   -1.3170    7.4410   17.0880 N   0  0  0  0  0  0  0  0  0  0  0  0
   -1.8270    6.1870   17.4250 C   0  0  0  0  0  0  0  0  0  0  0  0
   -1.1130    5.1090   18.0170 C   0  0  0  0  0  0  0  0  0  0  0  0
   -1.7800    3.9120   18.2850 C   0  0  0  0  0  0  0  0  0  0  0  0
   -3.1280    3.7670   17.9850 C   0  0  0  0  0  0  0  0  0  0  0  0
   -3.8840    4.8010   17.4020 C   0  0  0  0  0  0  0  0  0  0  0  0
   -3.1920    6.0130   17.1310 C   0  0  0  0  0  0  0  0  0  0  0  0
   -3.7750    7.4830   16.4220 S   0  0  0  0  0  0  0  0  0  0  0  0
   -5.2430    4.5050   17.1550 N   0  0  0  0  0  0  0  0  0  0  0  0
   -5.5060    3.0940   16.8000 C   0  0  0  0  0  0  0  0  0  0  0  0
   -6.9750    2.9550   16.3640 C   0  0  0  0  0  0  0  0  0  0  0  0
   -7.8760    3.4060   17.3930 O   0  0  0  0  0  0  0  0  0  0  0  0
   -7.6170    4.7830   17.7160 C   0  0  0  0  0  0  0  0  0  0  0  0
   -6.1700    4.9880   18.1980 C   0  0  0  0  0  0  0  0  0  0  0  0
   -2.1400   11.7270   15.2530 C   0  0  0  0  0  0  0  0  0  0  0  0
   -1.3120   11.3750   14.0090 C   0  0  0  0  0  0  0  0  0  0  0  0
   -3.1930   12.7940   14.9250 C   0  0  0  0  0  0  0  0  0  0  0  0
   -1.2980   12.0700   16.3820 O   0  0  0  0  0  0  0  0  0  0  0  0
   -0.2500   15.5720   16.7190 C   0  0  0  0  0  0  0  0  0  0  0  0
   -1.1930   16.0210   17.6440 C   0  0  0  0  0  0  0  0  0  0  0  0
   -2.1610   15.1430   18.1440 C   0  0  0  0  0  0  0  0  0  0  0  0
   -2.1990   13.8190   17.7090 C   0  0  0  0  0  0  0  0  0  0  0  0
   -1.2860   13.3820   16.7550 C   0  0  0  0  0  0  0  0  0  0  0  0
   -0.2940   14.2420   16.2880 C   0  0  0  0  0  0  0  0  0  0  0  0
    0.7620   16.3080   16.1690 O   0  0  0  0  0  0  0  0  0  0  0  0
    1.1440   16.0450   14.8200 C   0  0  0  0  0  0  0  0  0  0  0  0
    2.5670   16.5200   14.5400 C   0  0  0  0  0  0  0  0  0  0  0  0
    2.1550   14.8970   12.8830 C   0  0  0  0  0  0  0  0  0  0  0  0
    3.0360   15.9190   13.3340 O   0  0  0  0  0  0  0  0  0  0  0  0
    0.2300    5.0780   18.3800 O   0  0  0  0  0  0  0  0  0  0  0  0
    0.6830    3.9010   19.0340 C   0  0  0  0  0  0  0  0  0  0  0  0
  1  3  1  0
  2  1  2  0
  3  4  1  0
  4  5  2  0
  5  6  1  0
  6  7  2  0
  7  8  1  0
  7 34  1  0
  9  8  2  0
 10  9  1  0
 11 10  2  0
 11  6  1  0
 12  4  1  0
 12 11  1  0
 13 10  1  0
 13 18  1  0
 14 13  1  0
 15 14  1  0
 15 16  1  0
 16 17  1  0
 17 18  1  0
 19  1  1  0
 19 22  1  0
 20 19  1  0
 21 19  1  0
 22 27  1  0
 23 24  1  0
 24 25  2  0
 26 25  1  0
 27 26  2  0
 28 23  2  0
 28 27  1  0
 29 23  1  0
 30 29  1  0
 31 30  1  0
 32 33  1  0
 33 31  1  0
 34 35  1  0
M  END
$$$$
