lig_464
     RDKit          3D

 34 38  0  0  1  0  0  0  0  0999 V2000
   -1.3950   13.7330   16.5680 C   0  0  0  0  0  0  0  0  0  0  0  0
   -2.6810   13.1040   17.1040 C   0  0  0  0  0  0  0  0  0  0  0  0
   -3.5170   12.4750   15.9880 C   0  0  0  0  0  0  0  0  0  0  0  0
   -2.7210   11.5500   15.1660 N   0  0  0  0  0  0  0  0  0  0  0  0
   -1.5280   12.1750   14.5830 C   0  0  0  0  0  0  0  0  0  0  0  0
   -0.6280   12.7460   15.6810 C   0  0  0  0  0  0  0  0  0  0  0  0
   -2.5740   10.2530   15.6670 C   0  0  0  0  0  0  0  0  0  0  0  0
   -3.6820    9.4140   15.7870 C   0  0  0  0  0  0  0  0  0  0  0  0
   -3.5460    8.1200   16.3050 C   0  0  0  0  0  0  0  0  0  0  0  0
   -2.2950    7.6680   16.7140 C   0  0  0  0  0  0  0  0  0  0  0  0
   -1.2460    8.5660   16.5730 C   0  0  0  0  0  0  0  0  0  0  0  0
   -1.3620    9.8250   16.0760 N   0  0  0  0  0  0  0  0  0  0  0  0
   -2.0520    6.3370   17.2670 C   0  0  0  0  0  0  0  0  0  0  0  0
   -2.9070    5.3280   17.2480 N   0  0  0  0  0  0  0  0  0  0  0  0
   -2.2810    4.2750   17.8630 C   0  0  0  0  0  0  0  0  0  0  0  0
   -2.7470    2.9760   18.1080 C   0  0  0  0  0  0  0  0  0  0  0  0
   -1.8920    2.0880   18.7610 C   0  0  0  0  0  0  0  0  0  0  0  0
   -2.3160    0.8410   19.0070 F   0  0  0  0  0  0  0  0  0  0  0  0
   -0.6140    2.4730   19.1590 C   0  0  0  0  0  0  0  0  0  0  0  0
    0.1820    1.5920   19.7840 F   0  0  0  0  0  0  0  0  0  0  0  0
   -0.1300    3.7620   18.9240 C   0  0  0  0  0  0  0  0  0  0  0  0
   -1.0030    4.6350   18.2710 C   0  0  0  0  0  0  0  0  0  0  0  0
   -0.8810    5.9450   17.8790 N   0  0  0  0  0  0  0  0  0  0  0  0
   -1.7500   14.8990   15.8110 O   0  0  0  0  0  0  0  0  0  0  0  0
    2.0650   16.0280   15.0770 C   0  0  1  0  0  0  0  0  0  0  0  0
    1.6000   16.2670   16.5260 C   0  0  0  0  0  0  0  0  0  0  0  0
    0.3180   15.5040   16.8270 C   0  0  0  0  0  0  0  0  0  0  0  0
   -0.8520   16.0030   15.9680 C   0  0  1  0  0  0  0  0  0  0  0  0
   -0.3940   16.5180   14.5930 C   0  0  0  0  0  0  0  0  0  0  0  0
    0.8760   15.8170   14.1140 C   0  0  0  0  0  0  0  0  0  0  0  0
    2.9790   17.1840   14.6300 C   0  0  0  0  0  0  0  0  0  0  0  0
    3.0740   17.8970   12.2880 O   0  0  0  0  0  0  0  0  0  0  0  0
    3.3550   17.1080   13.1720 C   0  0  0  0  0  0  0  0  0  0  0  0
    4.0630   15.9950   12.8970 O   0  0  0  0  0  0  0  0  0  0  0  0
  1  2  1  0
  3  2  1  0
  4  7  1  0
  4  3  1  0
  5  4  1  0
  5  6  1  0
  6  1  1  0
  7  8  1  0
  7 12  2  0
  8  9  2  0
  9 10  1  0
 10 13  1  0
 11 10  2  0
 12 11  1  0
 13 23  1  0
 14 13  2  0
 14 15  1  0
 15 16  1  0
 15 22  2  0
 16 17  2  0
 17 18  1  0
 17 19  1  0
 19 20  1  0
 21 19  2  0
 22 21  1  0
 23 22  1  0
 24  1  1  0
 25 31  1  6
 25 26  1  0
 26 27  1  0
 28 24  1  6
 28 27  1  0
 29 28  1  0
 30 29  1  0
 30 25  1  0
 32 33  2  0
 33 31  1  0
 34 33  1  0
M  END
$$$$
