lig_253
     RDKit          3D

 30 32  0  0  1  0  0  0  0  0999 V2000
   -0.0920  -17.8080   15.0780 C   0  0  0  0  0  0  0  0  0  0  0  0
    0.5440  -17.2230   12.6340 C   0  0  2  0  0  0  0  0  0  0  0  0
    0.1070  -18.4860   11.8670 C   0  0  0  0  0  0  0  0  0  0  0  0
    0.4740  -19.6070   12.7320 N   0  0  0  0  0  0  0  0  0  0  0  0
    1.5310  -19.1340   13.6220 C   0  0  0  0  0  0  0  0  0  0  0  0
    1.0130  -17.7480   14.0080 C   0  0  2  0  0  0  0  0  0  0  0  0
   -0.5040  -16.1070   12.6620 C   0  0  0  0  0  0  0  0  0  0  0  0
    0.4630  -15.0300   10.5980 C   0  0  0  0  0  0  0  0  0  0  0  0
    0.0110  -14.8090   12.0340 C   0  0  0  0  0  0  0  0  0  0  0  0
    0.8010  -20.8320   12.0060 C   0  0  0  0  0  0  0  0  0  0  0  0
    0.2930  -22.0890   12.6850 C   0  0  0  0  0  0  0  0  0  0  0  0
    1.0220  -22.6760   13.7290 C   0  0  0  0  0  0  0  0  0  0  0  0
    0.5630  -23.8430   14.3470 C   0  0  0  0  0  0  0  0  0  0  0  0
   -0.6250  -24.4370   13.9240 C   0  0  0  0  0  0  0  0  0  0  0  0
   -1.3540  -23.8700   12.8820 C   0  0  0  0  0  0  0  0  0  0  0  0
   -0.8960  -22.7070   12.2620 C   0  0  0  0  0  0  0  0  0  0  0  0
   -0.2290  -19.1420   15.6310 N   0  0  0  0  0  0  0  0  0  0  0  0
   -1.2810  -19.5090   16.4390 C   0  0  0  0  0  0  0  0  0  0  0  0
   -2.1400  -18.7300   16.8360 O   0  0  0  0  0  0  0  0  0  0  0  0
   -1.3710  -20.9520   16.8090 C   0  0  0  0  0  0  0  0  0  0  0  0
   -2.3570  -21.7130   16.1720 C   0  0  0  0  0  0  0  0  0  0  0  0
   -2.4760  -23.0790   16.4390 C   0  0  0  0  0  0  0  0  0  0  0  0
   -3.7090  -23.9650   15.6020 Cl  0  0  0  0  0  0  0  0  0  0  0  0
   -1.6010  -23.7380   17.3300 C   0  0  0  0  0  0  0  0  0  0  0  0
   -0.6480  -22.9550   17.9930 C   0  0  0  0  0  0  0  0  0  0  0  0
   -0.5400  -21.5780   17.7460 C   0  0  0  0  0  0  0  0  0  0  0  0
   -1.7810  -25.1040   17.6240 N   0  0  0  0  0  0  0  0  0  0  0  0
   -2.8900  -25.4960   18.4760 C   0  0  0  0  0  0  0  0  0  0  0  0
    0.4330  -20.8810   18.4220 O   0  0  0  0  0  0  0  0  0  0  0  0
    0.0110  -20.6360   19.7680 C   0  0  0  0  0  0  0  0  0  0  0  0
  1 17  1  0
  2  7  1  1
  2  6  1  0
  3  2  1  0
  3  4  1  0
  4  5  1  0
  5  6  1  0
  6  1  1  1
  8  9  1  0
  9  7  1  0
 10 11  1  0
 10  4  1  0
 11 12  2  0
 12 13  1  0
 14 13  2  0
 15 14  1  0
 16 11  1  0
 16 15  2  0
 17 18  1  0
 18 20  1  0
 18 19  2  0
 20 26  2  0
 21 22  2  0
 21 20  1  0
 22 24  1  0
 23 22  1  0
 24 27  1  0
 24 25  2  0
 26 25  1  0
 26 29  1  0
 27 28  1  0
 29 30  1  0
M  END
$$$$
