lig_336
     RDKit          3D

 35 38  0  0  0  0  0  0  0  0999 V2000
    2.1450  -16.5930   12.3100 N   0  0  0  0  0  0  0  0  0  0  0  0
    1.1510  -15.6660   12.1100 C   0  0  0  0  0  0  0  0  0  0  0  0
    0.4130  -15.2360   12.9850 O   0  0  0  0  0  0  0  0  0  0  0  0
    1.0950  -15.2900   10.7940 N   0  0  0  0  0  0  0  0  0  0  0  0
    2.3310  -17.1950   13.6170 C   0  0  0  0  0  0  0  0  0  0  0  0
    1.6150  -18.5400   13.7380 C   0  0  0  0  0  0  0  0  0  0  0  0
    1.4330  -19.1800   12.3560 C   0  0  0  0  0  0  0  0  0  0  0  0
   -0.2500  -22.5940   14.2210 N   0  0  0  0  0  0  0  0  0  0  0  0
   -0.9520  -21.4140   13.7000 C   0  0  0  0  0  0  0  0  0  0  0  0
   -0.3080  -20.9270   12.3800 C   0  0  0  0  0  0  0  0  0  0  0  0
    1.1370  -20.6160   12.4470 N   0  0  0  0  0  0  0  0  0  0  0  0
    1.7510  -21.2020   13.6600 C   0  0  0  0  0  0  0  0  0  0  0  0
    1.2160  -22.6090   14.0170 C   0  0  0  0  0  0  0  0  0  0  0  0
   -0.7790  -22.9050   16.6110 C   0  0  0  0  0  0  0  0  0  0  0  0
   -1.3660  -23.6470   17.6450 C   0  0  0  0  0  0  0  0  0  0  0  0
   -1.9230  -24.8920   17.3770 C   0  0  0  0  0  0  0  0  0  0  0  0
   -1.8940  -25.3860   16.0790 C   0  0  0  0  0  0  0  0  0  0  0  0
   -1.3280  -24.6260   15.0450 C   0  0  0  0  0  0  0  0  0  0  0  0
   -0.7770  -23.3510   15.2670 C   0  0  0  0  0  0  0  0  0  0  0  0
   -1.2420  -20.7540   17.2530 C   0  0  0  0  0  0  0  0  0  0  0  0
   -0.2110  -21.7070   16.9840 O   0  0  0  0  0  0  0  0  0  0  0  0
    0.1510  -14.2720   10.3950 C   0  0  0  0  0  0  0  0  0  0  0  0
    0.5700  -13.6230    9.0970 C   0  0  0  0  0  0  0  0  0  0  0  0
    1.4780  -14.3050    8.2660 C   0  0  0  0  0  0  0  0  0  0  0  0
    1.8870  -13.7580    7.0500 C   0  0  0  0  0  0  0  0  0  0  0  0
    1.3920  -12.5240    6.6430 C   0  0  0  0  0  0  0  0  0  0  0  0
    0.4840  -11.8400    7.4510 C   0  0  0  0  0  0  0  0  0  0  0  0
    0.0560  -12.3730    8.6810 C   0  0  0  0  0  0  0  0  0  0  0  0
   -0.9120  -11.6130    9.4830 C   0  0  0  0  0  0  0  0  0  0  0  0
   -0.4770  -10.6850   10.4430 C   0  0  0  0  0  0  0  0  0  0  0  0
   -1.3970   -9.9640   11.2120 C   0  0  0  0  0  0  0  0  0  0  0  0
   -2.7630  -10.1630   11.0250 C   0  0  0  0  0  0  0  0  0  0  0  0
   -3.1960  -11.0770   10.0720 C   0  0  0  0  0  0  0  0  0  0  0  0
   -4.5100  -11.2680    9.8910 F   0  0  0  0  0  0  0  0  0  0  0  0
   -2.2900  -11.7970    9.3020 C   0  0  0  0  0  0  0  0  0  0  0  0
  1  5  1  0
  2  1  1  0
  2  3  2  0
  4  2  1  0
  5  6  1  0
  7 11  1  0
  7  6  1  0
  8 19  1  0
  9  8  1  0
 10 11  1  0
 10  9  1  0
 11 12  1  0
 12 13  1  0
 13  8  1  0
 14 21  1  0
 14 15  2  0
 16 15  1  0
 17 16  2  0
 18 19  2  0
 18 17  1  0
 19 14  1  0
 21 20  1  0
 22  4  1  0
 23 22  1  0
 24 23  2  0
 25 24  1  0
 26 25  2  0
 26 27  1  0
 27 28  2  0
 28 23  1  0
 28 29  1  0
 29 30  2  0
 30 31  1  0
 32 31  2  0
 33 32  1  0
 34 33  1  0
 35 29  1  0
 35 33  2  0
M  END
$$$$
