lig_048
     RDKit          3D

 26 30  0  0  0  0  0  0  0  0999 V2000
   -1.0170    5.9990   17.7070 N   0  0  0  0  0  0  0  0  0  0  0  0
   -1.8480    6.9220   17.1170 C   0  0  0  0  0  0  0  0  0  0  0  0
   -1.4080    8.1310   16.8250 N   0  0  0  0  0  0  0  0  0  0  0  0
   -2.3250    8.9590   16.2350 C   0  0  0  0  0  0  0  0  0  0  0  0
   -3.6520    8.7340   15.9120 C   0  0  0  0  0  0  0  0  0  0  0  0
   -4.2530    9.8090   15.3460 N   0  0  0  0  0  0  0  0  0  0  0  0
   -3.2940   10.7130   15.3000 C   0  0  0  0  0  0  0  0  0  0  0  0
   -2.1080   10.2440   15.8140 N   0  0  0  0  0  0  0  0  0  0  0  0
   -4.1320    7.3350   16.2800 C   0  0  0  0  0  0  0  0  0  0  0  0
   -5.2750    6.7050   16.1830 N   0  0  0  0  0  0  0  0  0  0  0  0
   -4.9780    5.4760   16.7460 C   0  0  0  0  0  0  0  0  0  0  0  0
   -3.7140    5.3290   17.1850 N   0  0  0  0  0  0  0  0  0  0  0  0
   -3.1920    6.5310   16.8530 N   0  0  0  0  0  0  0  0  0  0  0  0
   -6.0480    4.3440   16.8690 C   0  0  0  0  0  0  0  0  0  0  0  0
   -7.1970    4.4110   17.6340 C   0  0  0  0  0  0  0  0  0  0  0  0
   -7.8750    3.1810   17.4600 C   0  0  0  0  0  0  0  0  0  0  0  0
   -7.1010    2.4380   16.6020 C   0  0  0  0  0  0  0  0  0  0  0  0
   -5.9920    3.1310   16.2380 O   0  0  0  0  0  0  0  0  0  0  0  0
   -0.8730   10.9980   15.9330 C   0  0  0  0  0  0  0  0  0  0  0  0
   -1.1340   12.4250   16.3520 C   0  0  0  0  0  0  0  0  0  0  0  0
   -2.2030   12.6860   17.2310 C   0  0  0  0  0  0  0  0  0  0  0  0
   -2.4780   13.9840   17.6640 C   0  0  0  0  0  0  0  0  0  0  0  0
   -1.6910   15.0450   17.2260 C   0  0  0  0  0  0  0  0  0  0  0  0
   -0.6270   14.8060   16.3580 C   0  0  0  0  0  0  0  0  0  0  0  0
   -0.3470   13.5060   15.9240 C   0  0  0  0  0  0  0  0  0  0  0  0
    0.9880   13.3010   14.8480 Cl  0  0  0  0  0  0  0  0  0  0  0  0
  2  1  1  0
  3  2  2  0
  4  3  1  0
  5  4  2  0
  5  9  1  0
  6  5  1  0
  7  6  2  0
  7  8  1  0
  8 19  1  0
  8  4  1  0
  9 13  1  0
 10  9  2  0
 10 11  1  0
 11 14  1  0
 11 12  2  0
 13  2  1  0
 13 12  1  0
 14 15  2  0
 16 15  1  0
 17 16  2  0
 18 17  1  0
 18 14  1  0
 19 20  1  0
 20 21  2  0
 21 22  1  0
 23 22  2  0
 24 23  1  0
 25 20  1  0
 25 24  2  0
 26 25  1  0
M  END
$$$$
