lig_490
     RDKit          3D

 30 33  0  0  1  0  0  0  0  0999 V2000
   -0.5910    4.7710   18.3720 C   0  0  0  0  0  0  0  0  0  0  0  0
    0.3820    5.7720   18.2870 C   0  0  0  0  0  0  0  0  0  0  0  0
    0.2160    7.0150   17.7630 N   0  0  0  0  0  0  0  0  0  0  0  0
   -1.0370    7.2170   17.3130 C   0  0  0  0  0  0  0  0  0  0  0  0
   -2.0940    6.3200   17.3360 C   0  0  0  0  0  0  0  0  0  0  0  0
   -3.1610    7.0330   16.7440 C   0  0  0  0  0  0  0  0  0  0  0  0
   -2.8160    8.2650   16.3520 N   0  0  0  0  0  0  0  0  0  0  0  0
   -1.5250    8.3630   16.7410 N   0  0  0  0  0  0  0  0  0  0  0  0
   -1.8940    5.0360   17.8840 C   0  0  0  0  0  0  0  0  0  0  0  0
   -0.2610    3.4600   18.9900 C   0  0  0  0  0  0  0  0  0  0  0  0
   -1.0970    2.6680   19.3970 O   0  0  0  0  0  0  0  0  0  0  0  0
    1.4720    1.8890   19.0480 C   0  0  0  0  0  0  0  0  0  0  0  0
    1.0820    3.2650   19.0200 O   0  0  0  0  0  0  0  0  0  0  0  0
   -2.9350    4.0850   17.8750 N   0  0  0  0  0  0  0  0  0  0  0  0
   -3.6990    4.0950   16.6260 C   0  0  0  0  0  0  0  0  0  0  0  0
   -5.1680    3.9510   16.9430 C   0  0  0  0  0  0  0  0  0  0  0  0
   -5.9150    2.9020   16.3880 C   0  0  0  0  0  0  0  0  0  0  0  0
   -7.2690    2.7590   16.6930 C   0  0  0  0  0  0  0  0  0  0  0  0
   -7.8880    3.6560   17.5630 C   0  0  0  0  0  0  0  0  0  0  0  0
   -7.1510    4.6920   18.1330 C   0  0  0  0  0  0  0  0  0  0  0  0
   -5.7960    4.8380   17.8300 C   0  0  0  0  0  0  0  0  0  0  0  0
   -0.7710    9.5710   16.4730 C   0  0  0  0  0  0  0  0  0  0  0  0
   -1.5970   10.6550   15.7760 C   0  0  2  0  0  0  0  0  0  0  0  0
   -1.5690   10.4620   13.9900 Cl  0  0  0  0  0  0  0  0  0  0  0  0
   -1.1110   12.0460   16.1420 C   0  0  0  0  0  0  0  0  0  0  0  0
    0.1220   12.5050   15.6480 C   0  0  0  0  0  0  0  0  0  0  0  0
    0.5780   13.7890   15.9530 C   0  0  0  0  0  0  0  0  0  0  0  0
   -0.1900   14.6310   16.7540 C   0  0  0  0  0  0  0  0  0  0  0  0
   -1.4150   14.1920   17.2510 C   0  0  0  0  0  0  0  0  0  0  0  0
   -1.8730   12.9090   16.9470 C   0  0  0  0  0  0  0  0  0  0  0  0
  1 10  1  0
  2  1  1  0
  3  2  2  0
  4  5  2  0
  4  3  1  0
  5  9  1  0
  6  5  1  0
  7  8  1  0
  7  6  2  0
  8  4  1  0
  9  1  2  0
 10 13  1  0
 10 11  2  0
 13 12  1  0
 14  9  1  0
 15 16  1  0
 15 14  1  0
 16 21  1  0
 17 18  1  0
 17 16  2  0
 18 19  2  0
 19 20  1  0
 21 20  2  0
 22  8  1  0
 23 24  1  6
 23 25  1  0
 23 22  1  0
 25 30  1  0
 26 27  1  0
 26 25  2  0
 27 28  2  0
 28 29  1  0
 30 29  2  0
M  END
$$$$
