lig_325
     RDKit          3D

 32 36  0  0  0  0  0  0  0  0999 V2000
    0.7990  -17.8130   12.3110 N   0  0  0  0  0  0  0  0  0  0  0  0
   -0.5560  -18.3970   12.3870 C   0  0  0  0  0  0  0  0  0  0  0  0
   -0.5610  -19.9290   12.5860 C   0  0  0  0  0  0  0  0  0  0  0  0
    0.0850  -20.2530   13.8640 N   0  0  0  0  0  0  0  0  0  0  0  0
    1.3340  -19.5140   14.1580 C   0  0  0  0  0  0  0  0  0  0  0  0
    1.8150  -18.6670   12.9530 C   0  0  0  0  0  0  0  0  0  0  0  0
   -0.0200  -21.5360   14.4130 C   0  0  0  0  0  0  0  0  0  0  0  0
    0.5980  -22.6340   13.7820 C   0  0  0  0  0  0  0  0  0  0  0  0
    0.5460  -23.9240   14.3180 C   0  0  0  0  0  0  0  0  0  0  0  0
   -0.1370  -24.1530   15.5030 C   0  0  0  0  0  0  0  0  0  0  0  0
   -0.7740  -23.0930   16.1440 C   0  0  0  0  0  0  0  0  0  0  0  0
   -0.7370  -21.7820   15.6200 C   0  0  0  0  0  0  0  0  0  0  0  0
   -1.5120  -20.7380   16.3250 C   0  0  0  0  0  0  0  0  0  0  0  0
   -2.5690  -21.0830   17.1850 C   0  0  0  0  0  0  0  0  0  0  0  0
   -3.3010  -20.1010   17.8570 C   0  0  0  0  0  0  0  0  0  0  0  0
   -2.9840  -18.7560   17.6840 C   0  0  0  0  0  0  0  0  0  0  0  0
   -1.9370  -18.3930   16.8410 C   0  0  0  0  0  0  0  0  0  0  0  0
   -1.2050  -19.3760   16.1690 C   0  0  0  0  0  0  0  0  0  0  0  0
    0.8320  -16.4000   12.7130 C   0  0  0  0  0  0  0  0  0  0  0  0
    1.2280  -15.3950   11.6200 C   0  0  0  0  0  0  0  0  0  0  0  0
    0.1000  -15.1400   10.6130 C   0  0  0  0  0  0  0  0  0  0  0  0
    1.6030  -15.0920    8.2860 O   0  0  0  0  0  0  0  0  0  0  0  0
    1.0990  -14.0360    8.6690 C   0  0  0  0  0  0  0  0  0  0  0  0
    1.4220  -12.7430    7.9600 C   0  0  0  0  0  0  0  0  0  0  0  0
    0.1920  -11.8740    7.8410 C   0  0  0  0  0  0  0  0  0  0  0  0
   -0.4180  -11.6720    9.1980 C   0  0  0  0  0  0  0  0  0  0  0  0
   -1.0950  -10.4760    9.4840 C   0  0  0  0  0  0  0  0  0  0  0  0
   -1.7220  -10.3010   10.7150 C   0  0  0  0  0  0  0  0  0  0  0  0
   -1.6870  -11.3220   11.6560 C   0  0  0  0  0  0  0  0  0  0  0  0
   -1.0280  -12.5220   11.3690 C   0  0  0  0  0  0  0  0  0  0  0  0
   -0.3810  -12.7140   10.1410 C   0  0  0  0  0  0  0  0  0  0  0  0
    0.2900  -13.9330    9.8040 N   0  0  0  0  0  0  0  0  0  0  0  0
  1  2  1  0
  1 19  1  0
  1  6  1  0
  2  3  1  0
  3  4  1  0
  4  5  1  0
  4  7  1  0
  6  5  1  0
  7 12  1  0
  8  9  1  0
  8  7  2  0
  9 10  2  0
 10 11  1  0
 12 11  2  0
 12 13  1  0
 13 14  2  0
 14 15  1  0
 16 15  2  0
 17 16  1  0
 18 13  1  0
 18 17  2  0
 20 19  1  0
 21 20  1  0
 22 23  2  0
 23 32  1  0
 24 23  1  0
 25 24  1  0
 25 26  1  0
 26 27  2  0
 26 31  1  0
 27 28  1  0
 28 29  2  0
 30 29  1  0
 31 30  2  0
 32 31  1  0
 32 21  1  0
M  END
$$$$
