mol_056c5bbf35ee
     RDKit          3D

 55 59  0  0  0  0  0  0  0  0999 V2000
    6.3411   -1.4528   -1.5050 C   0  0  0  0  0  0  0  0  0  0  0  0
    6.6219   -0.3394   -0.4933 C   0  0  0  0  0  0  0  0  0  0  0  0
    8.1226   -0.2548   -0.2126 C   0  0  0  0  0  0  0  0  0  0  0  0
    5.8532   -0.5615    0.8182 C   0  0  0  0  0  0  0  0  0  0  0  0
    4.4182   -0.4942    0.6374 N   0  0  0  0  0  0  0  0  0  0  0  0
    3.7408    0.7051    0.6261 C   0  0  0  0  0  0  0  0  0  0  0  0
    4.3007    1.7867    0.7761 O   0  0  0  0  0  0  0  0  0  0  0  0
    2.2959    0.5983    0.4191 C   0  0  0  0  0  0  0  0  0  0  0  0
    1.4701   -0.5395    0.1862 C   0  0  0  0  0  0  0  0  0  0  0  0
    0.1698   -0.0987    0.0450 C   0  0  0  0  0  0  0  0  0  0  0  0
    0.1504    1.2688    0.2109 N   0  0  0  0  0  0  0  0  0  0  0  0
    1.4409    1.6917    0.4077 C   0  0  0  0  0  0  0  0  0  0  0  0
   -1.0390    2.0369    0.1730 C   0  0  0  0  0  0  0  0  0  0  0  0
   -0.9988    3.4361    0.1545 C   0  0  0  0  0  0  0  0  0  0  0  0
   -2.1890    4.1631    0.1427 C   0  0  0  0  0  0  0  0  0  0  0  0
   -3.4145    3.4987    0.1656 C   0  0  0  0  0  0  0  0  0  0  0  0
   -3.4599    2.0984    0.1885 C   0  0  0  0  0  0  0  0  0  0  0  0
   -2.2716    1.3513    0.1762 C   0  0  0  0  0  0  0  0  0  0  0  0
   -2.3348   -0.1631    0.2918 C   0  0  0  0  0  0  0  0  0  0  0  0
   -1.0808   -0.8325   -0.3005 C   0  0  0  0  0  0  0  0  0  0  0  0
   -3.6250   -0.6825   -0.3873 C   0  0  0  0  0  0  0  0  0  0  0  0
   -3.8126   -2.1986   -0.2051 C   0  0  0  0  0  0  0  0  0  0  0  0
   -5.0862   -2.7151   -0.8794 C   0  0  0  0  0  0  0  0  0  0  0  0
   -6.2312   -1.7041   -0.8696 C   0  0  0  0  0  0  0  0  0  0  0  0
   -6.0675   -0.6740    0.2375 C   0  0  0  0  0  0  0  0  0  0  0  0
   -4.8061    0.0490    0.0969 N   0  0  0  0  0  0  0  0  0  0  0  0
   -4.7838    1.4251    0.2904 C   0  0  0  0  0  0  0  0  0  0  0  0
   -5.7812    2.0889    0.5563 O   0  0  0  0  0  0  0  0  0  0  0  0
    5.2798   -1.4874   -1.7714 H   0  0  0  0  0  0  0  0  0  0  0  0
    6.9070   -1.2888   -2.4283 H   0  0  0  0  0  0  0  0  0  0  0  0
    6.6232   -2.4329   -1.1057 H   0  0  0  0  0  0  0  0  0  0  0  0
    6.3058    0.6116   -0.9402 H   0  0  0  0  0  0  0  0  0  0  0  0
    8.3432    0.5658    0.4782 H   0  0  0  0  0  0  0  0  0  0  0  0
    8.6816   -0.0720   -1.1364 H   0  0  0  0  0  0  0  0  0  0  0  0
    8.4972   -1.1830    0.2324 H   0  0  0  0  0  0  0  0  0  0  0  0
    6.0795   -1.5474    1.2397 H   0  0  0  0  0  0  0  0  0  0  0  0
    6.1435    0.1919    1.5598 H   0  0  0  0  0  0  0  0  0  0  0  0
    3.9085   -1.3546    0.5119 H   0  0  0  0  0  0  0  0  0  0  0  0
    1.7810   -1.5721    0.1006 H   0  0  0  0  0  0  0  0  0  0  0  0
    1.6836    2.7351    0.5560 H   0  0  0  0  0  0  0  0  0  0  0  0
   -0.0622    3.9859    0.1415 H   0  0  0  0  0  0  0  0  0  0  0  0
   -2.1630    5.2503    0.1287 H   0  0  0  0  0  0  0  0  0  0  0  0
   -4.3375    4.0757    0.1810 H   0  0  0  0  0  0  0  0  0  0  0  0
   -2.3764   -0.3857    1.3683 H   0  0  0  0  0  0  0  0  0  0  0  0
   -1.0032   -1.8662    0.0557 H   0  0  0  0  0  0  0  0  0  0  0  0
   -1.1538   -0.8725   -1.3956 H   0  0  0  0  0  0  0  0  0  0  0  0
   -3.5707   -0.4659   -1.4643 H   0  0  0  0  0  0  0  0  0  0  0  0
   -2.9616   -2.7594   -0.6052 H   0  0  0  0  0  0  0  0  0  0  0  0
   -3.8634   -2.4291    0.8675 H   0  0  0  0  0  0  0  0  0  0  0  0
   -5.4004   -3.6379   -0.3768 H   0  0  0  0  0  0  0  0  0  0  0  0
   -4.8698   -2.9930   -1.9182 H   0  0  0  0  0  0  0  0  0  0  0  0
   -6.2561   -1.1870   -1.8375 H   0  0  0  0  0  0  0  0  0  0  0  0
   -7.1886   -2.2272   -0.7680 H   0  0  0  0  0  0  0  0  0  0  0  0
   -6.0561   -1.1610    1.2197 H   0  0  0  0  0  0  0  0  0  0  0  0
   -6.9147    0.0192    0.2289 H   0  0  0  0  0  0  0  0  0  0  0  0
  1  2  1  0
  2  3  1  0
  2  4  1  0
  4  5  1  0
  5  6  1  0
  6  7  2  0
  6  8  1  0
  8  9  1  0
  9 10  2  0
 10 11  1  0
 11 12  1  0
 11 13  1  0
 13 14  2  0
 14 15  1  0
 15 16  2  0
 16 17  1  0
 17 18  2  0
 18 19  1  0
 19 20  1  0
 19 21  1  0
 21 22  1  0
 22 23  1  0
 23 24  1  0
 24 25  1  0
 25 26  1  0
 26 27  1  0
 27 28  2  0
 12  8  2  0
 18 13  1  0
 26 21  1  0
 20 10  1  0
 27 17  1  0
  1 29  1  0
  1 30  1  0
  1 31  1  0
  2 32  1  0
  3 33  1  0
  3 34  1  0
  3 35  1  0
  4 36  1  0
  4 37  1  0
  5 38  1  0
  9 39  1  0
 12 40  1  0
 14 41  1  0
 15 42  1  0
 16 43  1  0
 19 44  1  0
 20 45  1  0
 20 46  1  0
 21 47  1  0
 22 48  1  0
 22 49  1  0
 23 50  1  0
 23 51  1  0
 24 52  1  0
 24 53  1  0
 25 54  1  0
 25 55  1  0
M  END
>  <smiles>
CC(C)CNC(=O)c1cc2n(c1)-c1cccc3c1C(C2)C1CCCCN1C3=O

$$$$
