mol_bca4c56b72de
     RDKit          3D

 54 58  0  0  0  0  0  0  0  0999 V2000
    4.4073   -3.5151    0.0994 C   0  0  0  0  0  0  0  0  0  0  0  0
    3.5970   -2.3089    0.0771 N   0  0  0  0  0  0  0  0  0  0  0  0
    2.2223   -2.4038    0.2367 C   0  0  0  0  0  0  0  0  0  0  0  0
    1.6467   -3.4853    0.3636 O   0  0  0  0  0  0  0  0  0  0  0  0
    1.5342   -1.2122    0.2419 N   0  0  0  0  0  0  0  0  0  0  0  0
    2.0941    0.0325    0.0156 C   0  0  0  0  0  0  0  0  0  0  0  0
    1.1460    0.9878    0.0581 C   0  0  0  0  0  0  0  0  0  0  0  0
   -0.1394    0.3875    0.5353 C   0  0  0  0  0  0  0  0  0  0  0  0
   -1.4941    0.8229    0.0097 C   0  0  0  0  0  0  0  0  0  0  0  0
   -2.5740   -0.0193    0.7400 C   0  0  0  0  0  0  0  0  0  0  0  0
   -3.9417    0.3032    0.2924 N   0  0  0  0  0  0  0  0  0  0  0  0
   -4.7546    1.1056    1.2040 C   0  0  0  0  0  0  0  0  0  0  0  0
   -6.2378    1.1125    0.8815 C   0  0  0  0  0  0  0  0  0  0  0  0
   -6.4256    1.4192   -0.5897 C   0  0  0  0  0  0  0  0  0  0  0  0
   -5.7594    0.3325   -1.4087 C   0  0  0  0  0  0  0  0  0  0  0  0
   -4.3203    0.0496   -1.0221 C   0  0  0  0  0  0  0  0  0  0  0  0
   -3.5649   -0.4594   -1.8511 O   0  0  0  0  0  0  0  0  0  0  0  0
   -2.2967   -1.5486    0.7453 C   0  0  0  0  0  0  0  0  0  0  0  0
   -0.8369   -1.9220    1.0763 C   0  0  0  0  0  0  0  0  0  0  0  0
    0.0795   -1.0904    0.1900 C   0  0  0  0  0  0  0  0  0  0  0  0
    3.5374    0.1218   -0.2145 C   0  0  0  0  0  0  0  0  0  0  0  0
    4.2627   -1.0777   -0.1590 C   0  0  0  0  0  0  0  0  0  0  0  0
    5.6098   -1.1294   -0.3363 N   0  0  0  0  0  0  0  0  0  0  0  0
    6.2653    0.0256   -0.5823 C   0  0  0  0  0  0  0  0  0  0  0  0
    5.6468    1.2600   -0.6636 C   0  0  0  0  0  0  0  0  0  0  0  0
    6.5131    2.4224   -0.9419 C   0  0  0  0  0  0  0  0  0  0  0  0
    7.7187    2.3949   -1.0969 O   0  0  0  0  0  0  0  0  0  0  0  0
    5.8298    3.5826   -1.0171 O   0  0  0  0  0  0  0  0  0  0  0  0
    4.2595    1.3039   -0.4740 C   0  0  0  0  0  0  0  0  0  0  0  0
    3.5802    2.4970   -0.5364 O   0  0  0  0  0  0  0  0  0  0  0  0
    5.1722   -3.4280    0.8781 H   0  0  0  0  0  0  0  0  0  0  0  0
    4.8806   -3.6525   -0.8783 H   0  0  0  0  0  0  0  0  0  0  0  0
    3.8087   -4.4046    0.3145 H   0  0  0  0  0  0  0  0  0  0  0  0
    1.2951    2.0491   -0.0644 H   0  0  0  0  0  0  0  0  0  0  0  0
   -0.1390    0.5382    1.6267 H   0  0  0  0  0  0  0  0  0  0  0  0
   -1.5402    0.6959   -1.0769 H   0  0  0  0  0  0  0  0  0  0  0  0
   -1.6584    1.8893    0.2061 H   0  0  0  0  0  0  0  0  0  0  0  0
   -2.5193    0.2792    1.7971 H   0  0  0  0  0  0  0  0  0  0  0  0
   -4.3563    2.1267    1.1705 H   0  0  0  0  0  0  0  0  0  0  0  0
   -4.6194    0.7245    2.2226 H   0  0  0  0  0  0  0  0  0  0  0  0
   -6.6780    0.1360    1.1186 H   0  0  0  0  0  0  0  0  0  0  0  0
   -6.7509    1.8589    1.4975 H   0  0  0  0  0  0  0  0  0  0  0  0
   -7.4924    1.4697   -0.8335 H   0  0  0  0  0  0  0  0  0  0  0  0
   -5.9881    2.3959   -0.8294 H   0  0  0  0  0  0  0  0  0  0  0  0
   -6.3120   -0.6090   -1.3042 H   0  0  0  0  0  0  0  0  0  0  0  0
   -5.7817    0.6138   -2.4676 H   0  0  0  0  0  0  0  0  0  0  0  0
   -2.5380   -1.9815   -0.2320 H   0  0  0  0  0  0  0  0  0  0  0  0
   -2.9677   -2.0377    1.4623 H   0  0  0  0  0  0  0  0  0  0  0  0
   -0.6278   -1.7385    2.1369 H   0  0  0  0  0  0  0  0  0  0  0  0
   -0.6995   -2.9939    0.9056 H   0  0  0  0  0  0  0  0  0  0  0  0
   -0.1828   -1.2968   -0.8599 H   0  0  0  0  0  0  0  0  0  0  0  0
    7.3395   -0.0846   -0.7167 H   0  0  0  0  0  0  0  0  0  0  0  0
    6.5331    4.2460   -1.2075 H   0  0  0  0  0  0  0  0  0  0  0  0
    4.2174    3.2144   -0.7395 H   0  0  0  0  0  0  0  0  0  0  0  0
  1  2  1  0
  2  3  1  0
  3  4  2  0
  3  5  1  0
  5  6  1  0
  6  7  2  0
  7  8  1  0
  8  9  1  0
  9 10  1  0
 10 11  1  0
 11 12  1  0
 12 13  1  0
 13 14  1  0
 14 15  1  0
 15 16  1  0
 16 17  2  0
 10 18  1  0
 18 19  1  0
 19 20  1  0
  6 21  1  0
 21 22  2  0
 22 23  1  0
 23 24  2  0
 24 25  1  0
 25 26  1  0
 26 27  2  0
 26 28  1  0
 25 29  2  0
 29 30  1  0
 22  2  1  0
 20  5  1  0
 29 21  1  0
 20  8  1  0
 16 11  1  0
  1 31  1  0
  1 32  1  0
  1 33  1  0
  7 34  1  0
  8 35  1  0
  9 36  1  0
  9 37  1  0
 10 38  1  0
 12 39  1  0
 12 40  1  0
 13 41  1  0
 13 42  1  0
 14 43  1  0
 14 44  1  0
 15 45  1  0
 15 46  1  0
 18 47  1  0
 18 48  1  0
 19 49  1  0
 19 50  1  0
 20 51  1  0
 24 52  1  0
 28 53  1  0
 30 54  1  0
M  END
>  <smiles>
CN1C(=O)N2C(=CC3CC(N4CCCCC4=O)CCC32)c2c1ncc(C(=O)O)c2O

$$$$
