mol_45d6287a2aea
     RDKit          3D

 46 49  0  0  0  0  0  0  0  0999 V2000
   -1.5238   -2.7036   -0.4879 O   0  0  0  0  0  0  0  0  0  0  0  0
   -0.7974   -1.7412   -0.3045 C   0  0  0  0  0  0  0  0  0  0  0  0
    0.5926   -1.7374   -0.4694 N   0  0  0  0  0  0  0  0  0  0  0  0
    1.0888   -0.4660   -0.1867 C   0  0  0  0  0  0  0  0  0  0  0  0
    2.3963   -0.0080   -0.2362 C   0  0  0  0  0  0  0  0  0  0  0  0
    3.5308   -0.8663   -0.5921 C   0  0  0  0  0  0  0  0  0  0  0  0
    3.8732   -1.9740    0.2006 C   0  0  0  0  0  0  0  0  0  0  0  0
    4.9524   -2.7934   -0.1388 C   0  0  0  0  0  0  0  0  0  0  0  0
    5.7067   -2.5164   -1.2764 C   0  0  0  0  0  0  0  0  0  0  0  0
    5.3840   -1.4208   -2.0737 C   0  0  0  0  0  0  0  0  0  0  0  0
    4.3049   -0.6014   -1.7330 C   0  0  0  0  0  0  0  0  0  0  0  0
    2.5757    1.3525    0.0807 C   0  0  0  0  0  0  0  0  0  0  0  0
    1.4925    2.1973    0.4423 C   0  0  0  0  0  0  0  0  0  0  0  0
    1.7629    3.6524    0.7357 C   0  0  0  0  0  0  0  0  0  0  0  0
    0.7815    4.1871    1.6135 O   0  0  0  0  0  0  0  0  0  0  0  0
    0.1850    1.6809    0.4669 C   0  0  0  0  0  0  0  0  0  0  0  0
    0.0074    0.3491    0.1562 C   0  0  0  0  0  0  0  0  0  0  0  0
   -1.1588   -0.4362    0.0973 N   0  0  0  0  0  0  0  0  0  0  0  0
   -2.5086    0.0269    0.3654 C   0  0  0  0  0  0  0  0  0  0  0  0
   -3.3621    0.0628   -0.9167 C   0  0  0  0  0  0  0  0  0  0  0  0
   -4.8656   -0.0538   -0.6517 C   0  0  0  0  0  0  0  0  0  0  0  0
   -5.2534    0.5268    0.7012 C   0  0  0  0  0  0  0  0  0  0  0  0
   -4.5493   -0.1909    1.8545 C   0  0  0  0  0  0  0  0  0  0  0  0
   -3.1946   -0.7903    1.4673 C   0  0  0  0  0  0  0  0  0  0  0  0
    1.1274   -2.5374   -0.7665 H   0  0  0  0  0  0  0  0  0  0  0  0
    3.3007   -2.2009    1.0985 H   0  0  0  0  0  0  0  0  0  0  0  0
    5.2042   -3.6458    0.4870 H   0  0  0  0  0  0  0  0  0  0  0  0
    6.5460   -3.1543   -1.5414 H   0  0  0  0  0  0  0  0  0  0  0  0
    5.9698   -1.2047   -2.9634 H   0  0  0  0  0  0  0  0  0  0  0  0
    4.0622    0.2439   -2.3740 H   0  0  0  0  0  0  0  0  0  0  0  0
    3.5839    1.7672    0.0596 H   0  0  0  0  0  0  0  0  0  0  0  0
    2.7398    3.7678    1.2168 H   0  0  0  0  0  0  0  0  0  0  0  0
    1.7488    4.2227   -0.1986 H   0  0  0  0  0  0  0  0  0  0  0  0
    1.0400    5.1063    1.7937 H   0  0  0  0  0  0  0  0  0  0  0  0
   -0.6494    2.3218    0.7281 H   0  0  0  0  0  0  0  0  0  0  0  0
   -2.4421    1.0551    0.7405 H   0  0  0  0  0  0  0  0  0  0  0  0
   -3.0739   -0.7309   -1.6164 H   0  0  0  0  0  0  0  0  0  0  0  0
   -3.1549    1.0045   -1.4417 H   0  0  0  0  0  0  0  0  0  0  0  0
   -5.4191    0.4486   -1.4531 H   0  0  0  0  0  0  0  0  0  0  0  0
   -5.1583   -1.1109   -0.6855 H   0  0  0  0  0  0  0  0  0  0  0  0
   -4.9913    1.5923    0.7226 H   0  0  0  0  0  0  0  0  0  0  0  0
   -6.3387    0.4712    0.8420 H   0  0  0  0  0  0  0  0  0  0  0  0
   -4.4189    0.5175    2.6816 H   0  0  0  0  0  0  0  0  0  0  0  0
   -5.1907   -0.9933    2.2391 H   0  0  0  0  0  0  0  0  0  0  0  0
   -2.5565   -0.8547    2.3570 H   0  0  0  0  0  0  0  0  0  0  0  0
   -3.3500   -1.8222    1.1289 H   0  0  0  0  0  0  0  0  0  0  0  0
  1  2  2  0
  2  3  1  0
  3  4  1  0
  4  5  1  0
  5  6  1  0
  6  7  2  0
  7  8  1  0
  8  9  2  0
  9 10  1  0
 10 11  2  0
  5 12  2  0
 12 13  1  0
 13 14  1  0
 14 15  1  0
 13 16  2  0
 16 17  1  0
 17 18  1  0
 18 19  1  0
 19 20  1  0
 20 21  1  0
 21 22  1  0
 22 23  1  0
 23 24  1  0
 18  2  1  0
 24 19  1  0
 17  4  2  0
 11  6  1  0
  3 25  1  0
  7 26  1  0
  8 27  1  0
  9 28  1  0
 10 29  1  0
 11 30  1  0
 12 31  1  0
 14 32  1  0
 14 33  1  0
 15 34  1  0
 16 35  1  0
 19 36  1  0
 20 37  1  0
 20 38  1  0
 21 39  1  0
 21 40  1  0
 22 41  1  0
 22 42  1  0
 23 43  1  0
 23 44  1  0
 24 45  1  0
 24 46  1  0
M  END
>  <smiles>
O=c1[nH]c2c(-c3ccccc3)cc(CO)cc2n1C1CCCCC1

$$$$
