
     RDKit          3D

 17 18  0  0  0  0  0  0  0  0999 V2000
  -20.3100  -24.8250   14.0320 C   0  0  0  0  0  0  0  0  0  0  0  0
  -19.9770  -22.2140   14.9850 C   0  0  0  0  0  0  0  0  0  0  0  0
  -21.2120  -22.8370   15.0830 C   0  0  0  0  0  0  0  0  0  0  0  0
  -23.5110  -30.5640   13.8420 C   0  0  0  0  0  0  0  0  0  0  0  0
  -23.7790  -29.4680   12.8150 C   0  0  0  0  0  0  0  0  0  0  0  0
  -23.1270  -27.2860   13.8390 C   0  0  0  0  0  0  0  0  0  0  0  0
  -22.1480  -26.1310   14.0230 C   0  0  0  0  0  0  0  0  0  0  0  0
  -20.8030  -26.1100   13.6560 C   0  0  0  0  0  0  0  0  0  0  0  0
  -19.0470  -24.1840   13.9330 C   0  0  0  0  0  0  0  0  0  0  0  0
  -18.8920  -22.8840   14.4110 C   0  0  0  0  0  0  0  0  0  0  0  0
  -21.3700  -24.1600   14.5960 C   0  0  0  0  0  0  0  0  0  0  0  0
  -22.6670  -30.3000   14.9940 N   0  0  0  0  0  0  0  0  0  0  0  0
  -22.8150  -28.3930   12.9570 N   0  0  0  0  0  0  0  0  0  0  0  0
  -22.4580  -24.9720   14.5760 N   0  0  0  0  0  0  0  0  0  0  0  0
  -23.9960  -31.6340   13.6960 O   0  0  0  0  0  0  0  0  0  0  0  0
  -24.1540  -27.2750   14.4270 O   0  0  0  0  0  0  0  0  0  0  0  0
  -19.7950  -20.5480   15.6010 Cl  0  0  0  0  0  0  0  0  0  0  0  0
  3  2  2  0
  5  4  1  0
  7  6  1  0
  8  7  2  0
  8  1  1  0
  9  1  1  0
 10  9  2  0
 10  2  1  0
 11  3  1  0
 11  1  2  0
 12  4  1  0
 13  6  1  0
 13  5  1  0
 14  7  1  0
 14 11  1  0
 15  4  2  0
 16  6  2  0
 17  2  1  0
M  END
$$$$
