
     RDKit          3D

 24 25  0  0  0  0  0  0  0  0999 V2000
  -22.1850    8.3600   16.1240 C   0  0  0  0  0  0  0  0  0  0  0  0
  -22.4740    6.2410   17.2090 C   0  0  0  0  0  0  0  0  0  0  0  0
  -24.3360    7.2980   16.1690 C   0  0  0  0  0  0  0  0  0  0  0  0
  -21.8990    5.0410   17.9020 C   0  0  0  0  0  0  0  0  0  0  0  0
  -19.9500    4.0480   18.9280 C   0  0  0  0  0  0  0  0  0  0  0  0
  -18.2350    2.8370   19.7080 C   0  0  0  0  0  0  0  0  0  0  0  0
  -22.9260   11.0470   12.4610 C   0  0  0  0  0  0  0  0  0  0  0  0
  -23.5220   12.1920   13.2660 C   0  0  1  0  0  0  0  0  0  0  0  0
  -22.3770   12.8120   14.0260 C   0  0  0  0  0  0  0  0  0  0  0  0
  -24.0980   13.2130   12.2820 C   0  0  0  0  0  0  0  0  0  0  0  0
  -24.6020   11.7350   14.2610 C   0  0  0  0  0  0  0  0  0  0  0  0
  -24.0420   10.7950   15.3330 C   0  0  0  0  0  0  0  0  0  0  0  0
  -23.5510    8.3680   15.8270 C   0  0  0  0  0  0  0  0  0  0  0  0
  -21.6300    7.2840   16.8230 C   0  0  0  0  0  0  0  0  0  0  0  0
  -23.8130    6.2110   16.8600 C   0  0  0  0  0  0  0  0  0  0  0  0
  -19.2000    1.8620   19.8280 C   0  0  0  0  0  0  0  0  0  0  0  0
  -21.4120    9.4010   15.7550 F   0  0  0  0  0  0  0  0  0  0  0  0
  -25.6170    7.3160   15.8680 F   0  0  0  0  0  0  0  0  0  0  0  0
  -24.0820    9.4280   15.0430 N   0  0  0  0  0  0  0  0  0  0  0  0
  -20.5860    5.1480   18.3660 N   0  0  0  0  0  0  0  0  0  0  0  0
  -18.6570    4.0020   19.2110 N   0  0  0  0  0  0  0  0  0  0  0  0
  -23.6300   11.1470   16.4260 O   0  0  0  0  0  0  0  0  0  0  0  0
  -22.5490    4.0020   17.9190 O   0  0  0  0  0  0  0  0  0  0  0  0
  -20.6880    2.5300   19.2640 S   0  0  0  0  0  0  0  0  0  0  0  0
  4  2  1  0
  8  7  1  6
  9  8  1  0
 10  8  1  0
 11  8  1  0
 12 11  1  0
 13  3  1  0
 13  1  2  0
 14  1  1  0
 14  2  2  0
 15  3  2  0
 15  2  1  0
 16  6  2  0
 17  1  1  0
 18  3  1  0
 19 13  1  0
 19 12  1  0
 20  4  1  0
 20  5  1  0
 21  6  1  0
 21  5  2  0
 22 12  2  0
 23  4  2  0
 24 16  1  0
 24  5  1  0
M  END
$$$$
