
     RDKit          3D

 23 25  0  0  0  0  0  0  0  0999 V2000
  -20.5720  -25.4760   13.8760 C   0  0  0  0  0  0  0  0  0  0  0  0
  -18.9990  -23.6420   14.1770 C   0  0  0  0  0  0  0  0  0  0  0  0
  -19.7090  -21.5280   15.3830 C   0  0  2  0  0  0  0  0  0  0  0  0
  -21.2560  -23.4550   15.0200 C   0  0  0  0  0  0  0  0  0  0  0  0
  -21.5380  -24.7530   14.5280 C   0  0  0  0  0  0  0  0  0  0  0  0
  -23.5670  -27.7280   13.8490 C   0  0  0  0  0  0  0  0  0  0  0  0
  -24.3080  -30.0520   13.4040 C   0  0  0  0  0  0  0  0  0  0  0  0
  -24.0990  -31.2900   14.2720 C   0  0  0  0  0  0  0  0  0  0  0  0
  -22.6500  -31.7590   14.3060 C   0  0  0  0  0  0  0  0  0  0  0  0
  -20.7120  -32.3030   15.0320 C   0  0  0  0  0  0  0  0  0  0  0  0
  -20.7370  -32.4790   13.6580 C   0  0  0  0  0  0  0  0  0  0  0  0
  -22.5010  -26.6530   13.9970 C   0  0  0  0  0  0  0  0  0  0  0  0
  -21.1930  -26.7080   13.5230 C   0  0  0  0  0  0  0  0  0  0  0  0
  -19.2800  -24.9180   13.6930 C   0  0  0  0  0  0  0  0  0  0  0  0
  -19.9920  -22.9210   14.8440 C   0  0  0  0  0  0  0  0  0  0  0  0
  -19.0290  -20.8010   14.4510 F   0  0  0  0  0  0  0  0  0  0  0  0
  -18.9640  -21.6570   16.5160 F   0  0  0  0  0  0  0  0  0  0  0  0
  -20.8780  -20.8980   15.6880 F   0  0  0  0  0  0  0  0  0  0  0  0
  -23.2180  -29.1010   13.5440 N   0  0  0  0  0  0  0  0  0  0  0  0
  -21.9030  -31.8580   15.3910 N   0  0  0  0  0  0  0  0  0  0  0  0
  -21.9470  -32.1360   13.2530 N   0  0  0  0  0  0  0  0  0  0  0  0
  -22.6820  -25.4830   14.5840 N   0  0  0  0  0  0  0  0  0  0  0  0
  -24.7040  -27.4260   13.9780 O   0  0  0  0  0  0  0  0  0  0  0  0
  5  4  1  0
  5  1  2  0
  8  7  1  0
  9  8  1  0
 11 10  2  0
 12  6  1  0
 13 12  2  0
 13  1  1  0
 14  2  2  0
 14  1  1  0
 15  4  2  0
 15  2  1  0
 15  3  1  0
  3 16  1  6
 17  3  1  0
 18  3  1  0
 19  7  1  0
 19  6  1  0
 20  9  1  0
 20 10  1  0
 21  9  2  0
 21 11  1  0
 22 12  1  0
 22  5  1  0
 23  6  2  0
M  END
$$$$
