mol_536056bc75a8
     RDKit          3D

 55 58  0  0  0  0  0  0  0  0999 V2000
   -9.0315    0.5565    0.0886 C   0  0  0  0  0  0  0  0  0  0  0  0
   -7.6172    0.2626   -0.3837 C   0  0  0  0  0  0  0  0  0  0  0  0
   -6.9111   -0.7602    0.4943 C   0  0  0  0  0  0  0  0  0  0  0  0
   -7.5154   -1.3769    1.3716 O   0  0  0  0  0  0  0  0  0  0  0  0
   -5.5554   -0.9615    0.2497 N   0  0  0  0  0  0  0  0  0  0  0  0
   -4.8206   -1.8805    1.1205 C   0  0  0  0  0  0  0  0  0  0  0  0
   -3.3664   -1.4594    1.2713 C   0  0  0  0  0  0  0  0  0  0  0  0
   -2.6473   -1.4311   -0.0843 C   0  0  0  0  0  0  0  0  0  0  0  0
   -1.5376   -0.4829   -0.0422 N   0  0  0  0  0  0  0  0  0  0  0  0
   -0.3067   -0.8342    0.4772 C   0  0  0  0  0  0  0  0  0  0  0  0
   -0.0371   -1.9640    0.8656 O   0  0  0  0  0  0  0  0  0  0  0  0
    0.7223    0.2406    0.5157 C   0  0  0  0  0  0  0  0  0  0  0  0
    0.3759    1.5781    0.7244 C   0  0  0  0  0  0  0  0  0  0  0  0
    1.3697    2.5516    0.7280 C   0  0  0  0  0  0  0  0  0  0  0  0
    2.7066    2.1910    0.5292 C   0  0  0  0  0  0  0  0  0  0  0  0
    3.0880    0.8511    0.3388 C   0  0  0  0  0  0  0  0  0  0  0  0
    4.4769    0.4902    0.1380 N   0  0  0  0  0  0  0  0  0  0  0  0
    4.9432   -0.7218    0.6603 C   0  0  0  0  0  0  0  0  0  0  0  0
    4.3013   -1.5173    1.3469 O   0  0  0  0  0  0  0  0  0  0  0  0
    6.2530   -1.0398    0.4294 N   0  0  0  0  0  0  0  0  0  0  0  0
    7.1523   -0.2290   -0.2435 C   0  0  0  0  0  0  0  0  0  0  0  0
    8.4788   -0.6342   -0.3972 C   0  0  0  0  0  0  0  0  0  0  0  0
    9.3802    0.1934   -1.0694 C   0  0  0  0  0  0  0  0  0  0  0  0
    8.9552    1.4183   -1.5845 C   0  0  0  0  0  0  0  0  0  0  0  0
    7.6265    1.8165   -1.4280 C   0  0  0  0  0  0  0  0  0  0  0  0
    6.7238    0.9862   -0.7519 C   0  0  0  0  0  0  0  0  0  0  0  0
    5.3077    1.3699   -0.5828 C   0  0  0  0  0  0  0  0  0  0  0  0
    4.9528    2.4141   -1.1311 O   0  0  0  0  0  0  0  0  0  0  0  0
    2.0700   -0.1179    0.3463 C   0  0  0  0  0  0  0  0  0  0  0  0
   -3.5924   -1.1252   -1.2544 C   0  0  0  0  0  0  0  0  0  0  0  0
   -4.8013   -0.3057   -0.8192 C   0  0  0  0  0  0  0  0  0  0  0  0
   -9.5011    1.3043   -0.5579 H   0  0  0  0  0  0  0  0  0  0  0  0
   -9.6495   -0.3473    0.0691 H   0  0  0  0  0  0  0  0  0  0  0  0
   -9.0311    0.9413    1.1138 H   0  0  0  0  0  0  0  0  0  0  0  0
   -7.6586   -0.1264   -1.4066 H   0  0  0  0  0  0  0  0  0  0  0  0
   -7.0416    1.1943   -0.3830 H   0  0  0  0  0  0  0  0  0  0  0  0
   -4.8917   -2.8802    0.6756 H   0  0  0  0  0  0  0  0  0  0  0  0
   -5.2958   -1.9273    2.1063 H   0  0  0  0  0  0  0  0  0  0  0  0
   -3.3316   -0.4658    1.7385 H   0  0  0  0  0  0  0  0  0  0  0  0
   -2.8440   -2.1397    1.9543 H   0  0  0  0  0  0  0  0  0  0  0  0
   -2.2145   -2.4231   -0.2686 H   0  0  0  0  0  0  0  0  0  0  0  0
   -1.6805    0.4527   -0.3957 H   0  0  0  0  0  0  0  0  0  0  0  0
   -0.6518    1.8735    0.9122 H   0  0  0  0  0  0  0  0  0  0  0  0
    1.1135    3.5952    0.8957 H   0  0  0  0  0  0  0  0  0  0  0  0
    3.4495    2.9854    0.5649 H   0  0  0  0  0  0  0  0  0  0  0  0
    6.5486   -1.9242    0.8240 H   0  0  0  0  0  0  0  0  0  0  0  0
    8.8238   -1.5854   -0.0004 H   0  0  0  0  0  0  0  0  0  0  0  0
   10.4156   -0.1167   -1.1925 H   0  0  0  0  0  0  0  0  0  0  0  0
    9.6569    2.0623   -2.1098 H   0  0  0  0  0  0  0  0  0  0  0  0
    7.2983    2.7706   -1.8358 H   0  0  0  0  0  0  0  0  0  0  0  0
    2.2972   -1.1697    0.1806 H   0  0  0  0  0  0  0  0  0  0  0  0
   -3.0641   -0.6175   -2.0700 H   0  0  0  0  0  0  0  0  0  0  0  0
   -3.9568   -2.0772   -1.6635 H   0  0  0  0  0  0  0  0  0  0  0  0
   -4.4863    0.6739   -0.4407 H   0  0  0  0  0  0  0  0  0  0  0  0
   -5.4485   -0.1316   -1.6831 H   0  0  0  0  0  0  0  0  0  0  0  0
  1  2  1  0
  2  3  1  0
  3  4  2  0
  3  5  1  0
  5  6  1  0
  6  7  1  0
  7  8  1  0
  8  9  1  0
  9 10  1  0
 10 11  2  0
 10 12  1  0
 12 13  1  0
 13 14  2  0
 14 15  1  0
 15 16  2  0
 16 17  1  0
 17 18  1  0
 18 19  2  0
 18 20  1  0
 20 21  1  0
 21 22  2  0
 22 23  1  0
 23 24  2  0
 24 25  1  0
 25 26  2  0
 26 27  1  0
 27 28  2  0
 16 29  1  0
  8 30  1  0
 30 31  1  0
 31  5  1  0
 29 12  2  0
 27 17  1  0
 26 21  1  0
  1 32  1  0
  1 33  1  0
  1 34  1  0
  2 35  1  0
  2 36  1  0
  6 37  1  0
  6 38  1  0
  7 39  1  0
  7 40  1  0
  8 41  1  0
  9 42  1  0
 13 43  1  0
 14 44  1  0
 15 45  1  0
 20 46  1  0
 22 47  1  0
 23 48  1  0
 24 49  1  0
 25 50  1  0
 29 51  1  0
 30 52  1  0
 30 53  1  0
 31 54  1  0
 31 55  1  0
M  END
>  <smiles>
CCC(=O)N1CCC(NC(=O)c2cccc(-n3c(=O)[nH]c4ccccc4c3=O)c2)CC1

$$$$
