mol_432e925050e6
     RDKit          3D

 46 49  0  0  0  0  0  0  0  0999 V2000
   -3.8049   -3.6029   -1.8825 O   0  0  0  0  0  0  0  0  0  0  0  0
   -3.0984   -2.8314   -1.2520 C   0  0  0  0  0  0  0  0  0  0  0  0
   -1.7818   -3.0821   -1.1141 O   0  0  0  0  0  0  0  0  0  0  0  0
   -3.5172   -1.6695   -0.5184 C   0  0  0  0  0  0  0  0  0  0  0  0
   -4.7444   -1.5406    0.1095 C   0  0  0  0  0  0  0  0  0  0  0  0
   -4.7503   -0.3418    0.8549 C   0  0  0  0  0  0  0  0  0  0  0  0
   -5.7044    0.2615    1.6991 C   0  0  0  0  0  0  0  0  0  0  0  0
   -5.4287    1.5001    2.2818 C   0  0  0  0  0  0  0  0  0  0  0  0
   -4.2273    2.1451    2.0198 C   0  0  0  0  0  0  0  0  0  0  0  0
   -3.2676    1.5647    1.1840 C   0  0  0  0  0  0  0  0  0  0  0  0
   -3.5268    0.2945    0.6262 C   0  0  0  0  0  0  0  0  0  0  0  0
   -2.7908   -0.5110   -0.2535 N   0  0  0  0  0  0  0  0  0  0  0  0
   -1.5409   -0.1482   -0.8386 C   0  0  0  0  0  0  0  0  0  0  0  0
   -1.3328   -0.3305   -2.2147 C   0  0  0  0  0  0  0  0  0  0  0  0
   -0.1224    0.0530   -2.7986 C   0  0  0  0  0  0  0  0  0  0  0  0
    0.8875    0.6074   -2.0129 C   0  0  0  0  0  0  0  0  0  0  0  0
    0.6882    0.7618   -0.6371 C   0  0  0  0  0  0  0  0  0  0  0  0
    1.7355    1.3657    0.2147 C   0  0  0  0  0  0  0  0  0  0  0  0
    1.4340    2.3701    0.8555 O   0  0  0  0  0  0  0  0  0  0  0  0
    2.9970    0.7759    0.2541 N   0  0  0  0  0  0  0  0  0  0  0  0
    4.0517    1.4698    0.9902 C   0  0  0  0  0  0  0  0  0  0  0  0
    5.4376    1.0845    0.4892 C   0  0  0  0  0  0  0  0  0  0  0  0
    5.6858   -0.4211    0.5895 C   0  0  0  0  0  0  0  0  0  0  0  0
    4.3999   -1.2459    0.5263 C   0  0  0  0  0  0  0  0  0  0  0  0
    3.3121   -0.5504   -0.2848 C   0  0  0  0  0  0  0  0  0  0  0  0
   -0.5282    0.4038   -0.0476 C   0  0  0  0  0  0  0  0  0  0  0  0
   -1.6605   -3.9171   -1.6098 H   0  0  0  0  0  0  0  0  0  0  0  0
   -5.5384   -2.2772    0.0731 H   0  0  0  0  0  0  0  0  0  0  0  0
   -6.6549   -0.2287    1.8908 H   0  0  0  0  0  0  0  0  0  0  0  0
   -6.1650    1.9670    2.9311 H   0  0  0  0  0  0  0  0  0  0  0  0
   -4.0304    3.1198    2.4612 H   0  0  0  0  0  0  0  0  0  0  0  0
   -2.3533    2.1110    0.9719 H   0  0  0  0  0  0  0  0  0  0  0  0
   -2.1169   -0.7265   -2.8562 H   0  0  0  0  0  0  0  0  0  0  0  0
    0.0242   -0.0640   -3.8697 H   0  0  0  0  0  0  0  0  0  0  0  0
    1.8173    0.9309   -2.4733 H   0  0  0  0  0  0  0  0  0  0  0  0
    3.9380    1.2102    2.0496 H   0  0  0  0  0  0  0  0  0  0  0  0
    3.9095    2.5528    0.9027 H   0  0  0  0  0  0  0  0  0  0  0  0
    5.5335    1.3895   -0.5609 H   0  0  0  0  0  0  0  0  0  0  0  0
    6.2103    1.6266    1.0455 H   0  0  0  0  0  0  0  0  0  0  0  0
    6.3624   -0.7222   -0.2193 H   0  0  0  0  0  0  0  0  0  0  0  0
    6.2076   -0.6518    1.5261 H   0  0  0  0  0  0  0  0  0  0  0  0
    4.0325   -1.4078    1.5481 H   0  0  0  0  0  0  0  0  0  0  0  0
    4.6138   -2.2361    0.1090 H   0  0  0  0  0  0  0  0  0  0  0  0
    2.4129   -1.1741   -0.2969 H   0  0  0  0  0  0  0  0  0  0  0  0
    3.6443   -0.4132   -1.3202 H   0  0  0  0  0  0  0  0  0  0  0  0
   -0.6490    0.5287    1.0261 H   0  0  0  0  0  0  0  0  0  0  0  0
  1  2  2  0
  2  3  1  0
  2  4  1  0
  4  5  2  0
  5  6  1  0
  6  7  2  0
  7  8  1  0
  8  9  2  0
  9 10  1  0
 10 11  2  0
 11 12  1  0
 12 13  1  0
 13 14  2  0
 14 15  1  0
 15 16  2  0
 16 17  1  0
 17 18  1  0
 18 19  2  0
 18 20  1  0
 20 21  1  0
 21 22  1  0
 22 23  1  0
 23 24  1  0
 24 25  1  0
 17 26  2  0
 12  4  1  0
 26 13  1  0
 11  6  1  0
 25 20  1  0
  3 27  1  0
  5 28  1  0
  7 29  1  0
  8 30  1  0
  9 31  1  0
 10 32  1  0
 14 33  1  0
 15 34  1  0
 16 35  1  0
 21 36  1  0
 21 37  1  0
 22 38  1  0
 22 39  1  0
 23 40  1  0
 23 41  1  0
 24 42  1  0
 24 43  1  0
 25 44  1  0
 25 45  1  0
 26 46  1  0
M  END
>  <smiles>
O=C(O)c1cc2ccccc2n1-c1cccc(C(=O)N2CCCCC2)c1

$$$$
