mol_3ef589cd450b
     RDKit          3D

 54 57  0  0  0  0  0  0  0  0999 V2000
   -2.0724   -4.2755    0.3461 C   0  0  0  0  0  0  0  0  0  0  0  0
   -2.3026   -3.6319   -1.0159 C   0  0  0  0  0  0  0  0  0  0  0  0
   -2.2485   -2.0967   -0.9722 C   0  0  0  0  0  0  0  0  0  0  0  0
   -0.9066   -1.4141   -0.9046 C   0  0  0  0  0  0  0  0  0  0  0  0
    0.2873   -2.1053   -0.9100 C   0  0  0  0  0  0  0  0  0  0  0  0
    1.5076   -1.5372   -0.9048 N   0  0  0  0  0  0  0  0  0  0  0  0
    1.5681   -0.2038   -0.9163 C   0  0  0  0  0  0  0  0  0  0  0  0
    2.8001    0.4110   -0.9174 N   0  0  0  0  0  0  0  0  0  0  0  0
    2.8754    1.8535   -1.0830 C   0  0  0  0  0  0  0  0  0  0  0  0
    4.2490    2.2479   -1.6233 C   0  0  0  0  0  0  0  0  0  0  0  0
    5.3821    1.7604   -0.7112 C   0  0  0  0  0  0  0  0  0  0  0  0
    5.6708    2.7769    0.3705 C   0  0  0  0  0  0  0  0  0  0  0  0
    4.9936    3.7429    0.6775 O   0  0  0  0  0  0  0  0  0  0  0  0
    6.8268    2.5217    1.0152 O   0  0  0  0  0  0  0  0  0  0  0  0
    5.0840    0.4008   -0.0662 C   0  0  0  0  0  0  0  0  0  0  0  0
    4.0089   -0.3862   -0.8106 C   0  0  0  0  0  0  0  0  0  0  0  0
    0.4651    0.5552   -0.9261 N   0  0  0  0  0  0  0  0  0  0  0  0
   -0.7484   -0.0343   -0.9047 C   0  0  0  0  0  0  0  0  0  0  0  0
   -1.7943    0.8928   -0.9105 N   0  0  0  0  0  0  0  0  0  0  0  0
   -3.0846    0.8538   -0.3494 C   0  0  0  0  0  0  0  0  0  0  0  0
   -4.1626    1.0979   -1.2002 C   0  0  0  0  0  0  0  0  0  0  0  0
   -5.4344    1.1067   -0.6684 C   0  0  0  0  0  0  0  0  0  0  0  0
   -5.6999    0.9208    0.6390 N   0  0  0  0  0  0  0  0  0  0  0  0
   -4.6652    0.7427    1.4768 C   0  0  0  0  0  0  0  0  0  0  0  0
   -4.9378    0.5882    2.8298 C   0  0  0  0  0  0  0  0  0  0  0  0
   -3.9236    0.4218    3.7751 C   0  0  0  0  0  0  0  0  0  0  0  0
   -2.5988    0.4141    3.3653 C   0  0  0  0  0  0  0  0  0  0  0  0
   -2.2981    0.5635    2.0123 C   0  0  0  0  0  0  0  0  0  0  0  0
   -3.3204    0.7169    1.0433 C   0  0  0  0  0  0  0  0  0  0  0  0
   -2.8260   -3.9408    1.0664 H   0  0  0  0  0  0  0  0  0  0  0  0
   -2.1484   -5.3645    0.2635 H   0  0  0  0  0  0  0  0  0  0  0  0
   -1.0863   -4.0377    0.7533 H   0  0  0  0  0  0  0  0  0  0  0  0
   -1.6012   -4.0356   -1.7541 H   0  0  0  0  0  0  0  0  0  0  0  0
   -3.3051   -3.9263   -1.3519 H   0  0  0  0  0  0  0  0  0  0  0  0
   -2.7443   -1.7376   -1.8835 H   0  0  0  0  0  0  0  0  0  0  0  0
   -2.8545   -1.7838   -0.1174 H   0  0  0  0  0  0  0  0  0  0  0  0
    0.3285   -3.1894   -0.9304 H   0  0  0  0  0  0  0  0  0  0  0  0
    2.1273    2.2124   -1.8011 H   0  0  0  0  0  0  0  0  0  0  0  0
    2.6803    2.3480   -0.1242 H   0  0  0  0  0  0  0  0  0  0  0  0
    4.2931    3.3332   -1.7719 H   0  0  0  0  0  0  0  0  0  0  0  0
    4.3792    1.7961   -2.6161 H   0  0  0  0  0  0  0  0  0  0  0  0
    6.2877    1.6932   -1.3285 H   0  0  0  0  0  0  0  0  0  0  0  0
    6.8931    3.2404    1.6789 H   0  0  0  0  0  0  0  0  0  0  0  0
    4.7592    0.5352    0.9748 H   0  0  0  0  0  0  0  0  0  0  0  0
    6.0063   -0.1913   -0.0205 H   0  0  0  0  0  0  0  0  0  0  0  0
    3.8449   -1.3171   -0.2543 H   0  0  0  0  0  0  0  0  0  0  0  0
    4.3608   -0.6622   -1.8120 H   0  0  0  0  0  0  0  0  0  0  0  0
   -1.4010    1.8282   -0.9595 H   0  0  0  0  0  0  0  0  0  0  0  0
   -4.0119    1.2537   -2.2628 H   0  0  0  0  0  0  0  0  0  0  0  0
   -6.3038    1.2700   -1.2987 H   0  0  0  0  0  0  0  0  0  0  0  0
   -5.9744    0.6047    3.1592 H   0  0  0  0  0  0  0  0  0  0  0  0
   -4.1743    0.3072    4.8262 H   0  0  0  0  0  0  0  0  0  0  0  0
   -1.7990    0.2951    4.0916 H   0  0  0  0  0  0  0  0  0  0  0  0
   -1.2512    0.5641    1.7175 H   0  0  0  0  0  0  0  0  0  0  0  0
  1  2  1  0
  2  3  1  0
  3  4  1  0
  4  5  2  0
  5  6  1  0
  6  7  2  0
  7  8  1  0
  8  9  1  0
  9 10  1  0
 10 11  1  0
 11 12  1  0
 12 13  2  0
 12 14  1  0
 11 15  1  0
 15 16  1  0
  7 17  1  0
 17 18  2  0
 18 19  1  0
 19 20  1  0
 20 21  2  0
 21 22  1  0
 22 23  2  0
 23 24  1  0
 24 25  2  0
 25 26  1  0
 26 27  2  0
 27 28  1  0
 28 29  2  0
 18  4  1  0
 29 20  1  0
 16  8  1  0
 29 24  1  0
  1 30  1  0
  1 31  1  0
  1 32  1  0
  2 33  1  0
  2 34  1  0
  3 35  1  0
  3 36  1  0
  5 37  1  0
  9 38  1  0
  9 39  1  0
 10 40  1  0
 10 41  1  0
 11 42  1  0
 14 43  1  0
 15 44  1  0
 15 45  1  0
 16 46  1  0
 16 47  1  0
 19 48  1  0
 21 49  1  0
 22 50  1  0
 25 51  1  0
 26 52  1  0
 27 53  1  0
 28 54  1  0
M  END
>  <smiles>
CCCc1cnc(N2CCC(C(=O)O)CC2)nc1Nc1ccnc2ccccc12

$$$$
