mol_87356e7b5d39
     RDKit          3D

 55 58  0  0  0  0  0  0  0  0999 V2000
   -6.0636    1.7520    0.7384 C   0  0  0  0  0  0  0  0  0  0  0  0
   -4.7946    2.0236   -0.0629 C   0  0  0  0  0  0  0  0  0  0  0  0
   -4.4494    0.9073   -0.9498 N   0  0  0  0  0  0  0  0  0  0  0  0
   -3.9240   -0.2760   -0.2361 C   0  0  0  0  0  0  0  0  0  0  0  0
   -2.4055   -0.5134   -0.3663 C   0  0  0  0  0  0  0  0  0  0  0  0
   -1.9608   -0.5387   -1.7650 N   0  0  0  0  0  0  0  0  0  0  0  0
   -0.8904   -1.2740   -2.2545 C   0  0  0  0  0  0  0  0  0  0  0  0
   -0.6420   -1.4057   -3.4500 O   0  0  0  0  0  0  0  0  0  0  0  0
    0.0137   -1.9320   -1.2894 C   0  0  0  0  0  0  0  0  0  0  0  0
    0.1565   -3.3209   -1.3336 C   0  0  0  0  0  0  0  0  0  0  0  0
    1.0075   -3.9548   -0.4289 C   0  0  0  0  0  0  0  0  0  0  0  0
    1.7265   -3.2020    0.5041 C   0  0  0  0  0  0  0  0  0  0  0  0
    1.6029   -1.8061    0.5252 C   0  0  0  0  0  0  0  0  0  0  0  0
    2.3705   -1.0328    1.4434 N   0  0  0  0  0  0  0  0  0  0  0  0
    2.5207   -1.2734    2.8080 C   0  0  0  0  0  0  0  0  0  0  0  0
    1.8149   -2.2601    3.5841 C   0  0  0  0  0  0  0  0  0  0  0  0
    0.8401   -2.9288    3.2801 O   0  0  0  0  0  0  0  0  0  0  0  0
    2.3525   -2.3896    4.8169 O   0  0  0  0  0  0  0  0  0  0  0  0
    3.4068   -0.3214    3.2908 C   0  0  0  0  0  0  0  0  0  0  0  0
    3.7701    0.5468    2.2391 C   0  0  0  0  0  0  0  0  0  0  0  0
    4.6038    1.6781    2.1670 C   0  0  0  0  0  0  0  0  0  0  0  0
    4.7937    2.3151    0.9372 C   0  0  0  0  0  0  0  0  0  0  0  0
    4.1858    1.8378   -0.2204 C   0  0  0  0  0  0  0  0  0  0  0  0
    4.4854    2.5497   -1.3517 O   0  0  0  0  0  0  0  0  0  0  0  0
    3.9049    2.1011   -2.5705 C   0  0  0  0  0  0  0  0  0  0  0  0
    3.3545    0.7137   -0.1628 C   0  0  0  0  0  0  0  0  0  0  0  0
    3.1260    0.0923    1.0885 C   0  0  0  0  0  0  0  0  0  0  0  0
    0.7473   -1.1657   -0.3781 C   0  0  0  0  0  0  0  0  0  0  0  0
   -2.7902    0.2044   -2.7131 C   0  0  0  0  0  0  0  0  0  0  0  0
   -3.5408    1.3570   -2.0269 C   0  0  0  0  0  0  0  0  0  0  0  0
   -5.9402    0.9257    1.4443 H   0  0  0  0  0  0  0  0  0  0  0  0
   -6.9028    1.5150    0.0758 H   0  0  0  0  0  0  0  0  0  0  0  0
   -6.3357    2.6412    1.3167 H   0  0  0  0  0  0  0  0  0  0  0  0
   -4.9879    2.9217   -0.6638 H   0  0  0  0  0  0  0  0  0  0  0  0
   -3.9636    2.2640    0.6116 H   0  0  0  0  0  0  0  0  0  0  0  0
   -4.4365   -1.1488   -0.6616 H   0  0  0  0  0  0  0  0  0  0  0  0
   -4.1864   -0.2677    0.8273 H   0  0  0  0  0  0  0  0  0  0  0  0
   -2.1418   -1.4543    0.1267 H   0  0  0  0  0  0  0  0  0  0  0  0
   -1.8599    0.2959    0.1330 H   0  0  0  0  0  0  0  0  0  0  0  0
   -0.3949   -3.9038   -2.0677 H   0  0  0  0  0  0  0  0  0  0  0  0
    1.1182   -5.0363   -0.4545 H   0  0  0  0  0  0  0  0  0  0  0  0
    2.4022   -3.7206    1.1804 H   0  0  0  0  0  0  0  0  0  0  0  0
    1.7839   -3.0652    5.2393 H   0  0  0  0  0  0  0  0  0  0  0  0
    3.7277   -0.2398    4.3227 H   0  0  0  0  0  0  0  0  0  0  0  0
    5.1061    2.0523    3.0547 H   0  0  0  0  0  0  0  0  0  0  0  0
    5.4405    3.1879    0.8830 H   0  0  0  0  0  0  0  0  0  0  0  0
    4.2385    2.7736   -3.3666 H   0  0  0  0  0  0  0  0  0  0  0  0
    2.8117    2.1509   -2.5293 H   0  0  0  0  0  0  0  0  0  0  0  0
    4.2470    1.0919   -2.8224 H   0  0  0  0  0  0  0  0  0  0  0  0
    2.9032    0.3071   -1.0593 H   0  0  0  0  0  0  0  0  0  0  0  0
    0.6236   -0.0857   -0.3703 H   0  0  0  0  0  0  0  0  0  0  0  0
   -3.4967   -0.5056   -3.1601 H   0  0  0  0  0  0  0  0  0  0  0  0
   -2.1608    0.5942   -3.5211 H   0  0  0  0  0  0  0  0  0  0  0  0
   -4.1248    1.9014   -2.7779 H   0  0  0  0  0  0  0  0  0  0  0  0
   -2.7935    2.0542   -1.6234 H   0  0  0  0  0  0  0  0  0  0  0  0
  1  2  1  0
  2  3  1  0
  3  4  1  0
  4  5  1  0
  5  6  1  0
  6  7  1  0
  7  8  2  0
  7  9  1  0
  9 10  1  0
 10 11  2  0
 11 12  1  0
 12 13  2  0
 13 14  1  0
 14 15  1  0
 15 16  1  0
 16 17  2  0
 16 18  1  0
 15 19  2  0
 19 20  1  0
 20 21  2  0
 21 22  1  0
 22 23  2  0
 23 24  1  0
 24 25  1  0
 23 26  1  0
 26 27  2  0
 13 28  1  0
  6 29  1  0
 29 30  1  0
 30  3  1  0
 28  9  2  0
 27 14  1  0
 27 20  1  0
  1 31  1  0
  1 32  1  0
  1 33  1  0
  2 34  1  0
  2 35  1  0
  4 36  1  0
  4 37  1  0
  5 38  1  0
  5 39  1  0
 10 40  1  0
 11 41  1  0
 12 42  1  0
 18 43  1  0
 19 44  1  0
 21 45  1  0
 22 46  1  0
 25 47  1  0
 25 48  1  0
 25 49  1  0
 26 50  1  0
 28 51  1  0
 29 52  1  0
 29 53  1  0
 30 54  1  0
 30 55  1  0
M  END
>  <smiles>
CCN1CCN(C(=O)c2cccc(-n3c(C(=O)O)cc4ccc(OC)cc43)c2)CC1

$$$$
