mol_dd5e046cda97
     RDKit          3D

 59 62  0  0  0  0  0  0  0  0999 V2000
   -7.4958   -1.0379    0.0699 C   0  0  0  0  0  0  0  0  0  0  0  0
   -6.2988   -1.7916    0.5882 C   0  0  0  0  0  0  0  0  0  0  0  0
   -6.4097   -2.6217    1.4884 O   0  0  0  0  0  0  0  0  0  0  0  0
   -5.0891   -1.4911    0.0080 N   0  0  0  0  0  0  0  0  0  0  0  0
   -3.8685   -2.1680    0.4091 C   0  0  0  0  0  0  0  0  0  0  0  0
   -2.8433   -1.7753   -0.6456 C   0  0  0  0  0  0  0  0  0  0  0  0
   -3.2997   -0.3680   -1.0535 C   0  0  0  0  0  0  0  0  0  0  0  0
   -2.6732    0.0968   -2.3022 N   0  0  0  0  0  0  0  0  0  0  0  0
   -3.2810   -0.2823   -3.5723 C   0  0  0  0  0  0  0  0  0  0  0  0
   -1.4391    0.7530   -2.3558 C   0  0  0  0  0  0  0  0  0  0  0  0
   -0.8407    1.0181   -3.3949 O   0  0  0  0  0  0  0  0  0  0  0  0
   -0.7820    1.1465   -1.0958 C   0  0  0  0  0  0  0  0  0  0  0  0
   -1.2422    2.2543   -0.3824 C   0  0  0  0  0  0  0  0  0  0  0  0
   -0.5975    2.6247    0.7966 C   0  0  0  0  0  0  0  0  0  0  0  0
    0.5116    1.8979    1.2568 C   0  0  0  0  0  0  0  0  0  0  0  0
    1.0040    0.8091    0.5103 C   0  0  0  0  0  0  0  0  0  0  0  0
    0.3440    0.4368   -0.6702 C   0  0  0  0  0  0  0  0  0  0  0  0
    2.2306    0.0358    0.9413 C   0  0  0  0  0  0  0  0  0  0  0  0
    2.8726    0.5404    2.1547 N   0  0  0  0  0  0  0  0  0  0  0  0
    4.2018    0.3367    2.4882 C   0  0  0  0  0  0  0  0  0  0  0  0
    4.6880    0.7426    3.5456 O   0  0  0  0  0  0  0  0  0  0  0  0
    5.0946   -0.3788    1.4964 C   0  0  0  0  0  0  0  0  0  0  0  0
    5.7596    0.6394    0.5756 C   0  0  0  0  0  0  0  0  0  0  0  0
    6.5899   -0.0089   -0.4723 C   0  0  0  0  0  0  0  0  0  0  0  0
    6.2640   -0.2520   -1.8255 C   0  0  0  0  0  0  0  0  0  0  0  0
    7.2495   -0.8678   -2.4814 N   0  0  0  0  0  0  0  0  0  0  0  0
    8.2623   -1.0292   -1.5506 O   0  0  0  0  0  0  0  0  0  0  0  0
    7.8642   -0.5143   -0.3614 C   0  0  0  0  0  0  0  0  0  0  0  0
    1.9853    1.1593    3.1375 C   0  0  0  0  0  0  0  0  0  0  0  0
    1.2179    2.3245    2.5198 C   0  0  0  0  0  0  0  0  0  0  0  0
   -4.8323   -0.5079   -1.0358 C   0  0  0  0  0  0  0  0  0  0  0  0
   -7.4173    0.0172    0.3448 H   0  0  0  0  0  0  0  0  0  0  0  0
   -7.5671   -1.1358   -1.0165 H   0  0  0  0  0  0  0  0  0  0  0  0
   -8.4068   -1.4500    0.5138 H   0  0  0  0  0  0  0  0  0  0  0  0
   -4.0220   -3.2495    0.4721 H   0  0  0  0  0  0  0  0  0  0  0  0
   -3.5874   -1.7930    1.3996 H   0  0  0  0  0  0  0  0  0  0  0  0
   -2.8988   -2.4636   -1.4977 H   0  0  0  0  0  0  0  0  0  0  0  0
   -1.8200   -1.8027   -0.2604 H   0  0  0  0  0  0  0  0  0  0  0  0
   -3.0293    0.3121   -0.2394 H   0  0  0  0  0  0  0  0  0  0  0  0
   -2.6650    0.0001   -4.4299 H   0  0  0  0  0  0  0  0  0  0  0  0
   -3.4258   -1.3659   -3.5945 H   0  0  0  0  0  0  0  0  0  0  0  0
   -4.2448    0.2258   -3.6673 H   0  0  0  0  0  0  0  0  0  0  0  0
   -2.0907    2.8284   -0.7450 H   0  0  0  0  0  0  0  0  0  0  0  0
   -0.9564    3.4890    1.3522 H   0  0  0  0  0  0  0  0  0  0  0  0
    0.7078   -0.3949   -1.2705 H   0  0  0  0  0  0  0  0  0  0  0  0
    1.9473   -1.0039    1.1439 H   0  0  0  0  0  0  0  0  0  0  0  0
    2.9468    0.0445    0.1151 H   0  0  0  0  0  0  0  0  0  0  0  0
    5.8548   -0.9273    2.0676 H   0  0  0  0  0  0  0  0  0  0  0  0
    4.5412   -1.1410    0.9395 H   0  0  0  0  0  0  0  0  0  0  0  0
    5.0018    1.2738    0.0990 H   0  0  0  0  0  0  0  0  0  0  0  0
    6.3863    1.3189    1.1677 H   0  0  0  0  0  0  0  0  0  0  0  0
    5.3560   -0.0112   -2.3611 H   0  0  0  0  0  0  0  0  0  0  0  0
    8.5836   -0.5866    0.4413 H   0  0  0  0  0  0  0  0  0  0  0  0
    2.5390    1.5125    4.0132 H   0  0  0  0  0  0  0  0  0  0  0  0
    1.2956    0.3796    3.4853 H   0  0  0  0  0  0  0  0  0  0  0  0
    0.4938    2.7030    3.2503 H   0  0  0  0  0  0  0  0  0  0  0  0
    1.9091    3.1385    2.2697 H   0  0  0  0  0  0  0  0  0  0  0  0
   -5.3330    0.4398   -0.8171 H   0  0  0  0  0  0  0  0  0  0  0  0
   -5.2456   -0.9162   -1.9627 H   0  0  0  0  0  0  0  0  0  0  0  0
  1  2  1  0
  2  3  2  0
  2  4  1  0
  4  5  1  0
  5  6  1  0
  6  7  1  0
  7  8  1  0
  8  9  1  0
  8 10  1  0
 10 11  2  0
 10 12  1  0
 12 13  1  0
 13 14  2  0
 14 15  1  0
 15 16  2  0
 16 17  1  0
 16 18  1  0
 18 19  1  0
 19 20  1  0
 20 21  2  0
 20 22  1  0
 22 23  1  0
 23 24  1  0
 24 25  1  0
 25 26  2  0
 26 27  1  0
 27 28  1  0
 19 29  1  0
 29 30  1  0
  7 31  1  0
 31  4  1  0
 17 12  2  0
 28 24  2  0
 30 15  1  0
  1 32  1  0
  1 33  1  0
  1 34  1  0
  5 35  1  0
  5 36  1  0
  6 37  1  0
  6 38  1  0
  7 39  1  0
  9 40  1  0
  9 41  1  0
  9 42  1  0
 13 43  1  0
 14 44  1  0
 17 45  1  0
 18 46  1  0
 18 47  1  0
 22 48  1  0
 22 49  1  0
 23 50  1  0
 23 51  1  0
 25 52  1  0
 28 53  1  0
 29 54  1  0
 29 55  1  0
 30 56  1  0
 30 57  1  0
 31 58  1  0
 31 59  1  0
M  END
>  <smiles>
CC(=O)N1CCC(N(C)C(=O)c2ccc3c(c2)CN(C(=O)CCc2cnoc2)CC3)C1

$$$$
