mol_a94126128483
     RDKit          3D

 55 58  0  0  0  0  0  0  0  0999 V2000
   -4.4881   -0.4480    2.8056 O   0  0  0  0  0  0  0  0  0  0  0  0
   -4.8671   -0.4931    1.6334 C   0  0  0  0  0  0  0  0  0  0  0  0
   -6.3509   -0.4351    1.3245 C   0  0  0  0  0  0  0  0  0  0  0  0
   -6.6933   -0.0330   -0.0993 C   0  0  0  0  0  0  0  0  0  0  0  0
   -5.8636   -0.8381   -1.0824 C   0  0  0  0  0  0  0  0  0  0  0  0
   -6.1662   -2.2230   -0.9225 O   0  0  0  0  0  0  0  0  0  0  0  0
   -4.3825   -0.5545   -0.8259 C   0  0  0  0  0  0  0  0  0  0  0  0
   -3.9829   -0.6610    0.5755 N   0  0  0  0  0  0  0  0  0  0  0  0
   -2.5598   -0.8266    0.8773 C   0  0  0  0  0  0  0  0  0  0  0  0
   -1.8391    0.4709    1.2642 C   0  0  0  0  0  0  0  0  0  0  0  0
   -1.5007    1.4110    0.1022 C   0  0  0  0  0  0  0  0  0  0  0  0
   -0.5244    0.8466   -0.9109 C   0  0  0  0  0  0  0  0  0  0  0  0
   -1.0124    0.5193   -2.1891 C   0  0  0  0  0  0  0  0  0  0  0  0
   -0.1822   -0.0352   -3.1606 C   0  0  0  0  0  0  0  0  0  0  0  0
    1.1569   -0.2711   -2.8716 C   0  0  0  0  0  0  0  0  0  0  0  0
    1.6781    0.0668   -1.6161 C   0  0  0  0  0  0  0  0  0  0  0  0
    0.8473    0.6423   -0.6340 C   0  0  0  0  0  0  0  0  0  0  0  0
    1.4718    0.9684    0.6945 C   0  0  0  0  0  0  0  0  0  0  0  0
    2.9237    1.3953    0.5088 C   0  0  0  0  0  0  0  0  0  0  0  0
    3.7011    0.3928   -0.2168 N   0  0  0  0  0  0  0  0  0  0  0  0
    5.0742    0.1746    0.1521 C   0  0  0  0  0  0  0  0  0  0  0  0
    5.7368   -1.0215   -0.1654 C   0  0  0  0  0  0  0  0  0  0  0  0
    7.0694   -1.2424    0.2054 C   0  0  0  0  0  0  0  0  0  0  0  0
    7.7563   -0.2611    0.9044 C   0  0  0  0  0  0  0  0  0  0  0  0
    9.0533   -0.4307    1.2844 O   0  0  0  0  0  0  0  0  0  0  0  0
    7.1320    0.9308    1.2359 C   0  0  0  0  0  0  0  0  0  0  0  0
    5.8002    1.1464    0.8626 C   0  0  0  0  0  0  0  0  0  0  0  0
    3.1238   -0.2193   -1.3450 C   0  0  0  0  0  0  0  0  0  0  0  0
    3.7108   -0.9471   -2.1430 O   0  0  0  0  0  0  0  0  0  0  0  0
   -6.8160    0.2743    2.0187 H   0  0  0  0  0  0  0  0  0  0  0  0
   -6.7636   -1.4265    1.5471 H   0  0  0  0  0  0  0  0  0  0  0  0
   -6.5059    1.0382   -0.2412 H   0  0  0  0  0  0  0  0  0  0  0  0
   -7.7619   -0.2083   -0.2691 H   0  0  0  0  0  0  0  0  0  0  0  0
   -6.1215   -0.5640   -2.1109 H   0  0  0  0  0  0  0  0  0  0  0  0
   -5.5243   -2.7404   -1.4383 H   0  0  0  0  0  0  0  0  0  0  0  0
   -3.7728   -1.2562   -1.4056 H   0  0  0  0  0  0  0  0  0  0  0  0
   -4.1482    0.4641   -1.1495 H   0  0  0  0  0  0  0  0  0  0  0  0
   -2.4937   -1.5094    1.7343 H   0  0  0  0  0  0  0  0  0  0  0  0
   -2.0649   -1.3376    0.0451 H   0  0  0  0  0  0  0  0  0  0  0  0
   -2.4439    1.0299    1.9881 H   0  0  0  0  0  0  0  0  0  0  0  0
   -0.9190    0.1950    1.7903 H   0  0  0  0  0  0  0  0  0  0  0  0
   -1.0817    2.3432    0.5011 H   0  0  0  0  0  0  0  0  0  0  0  0
   -2.4253    1.7220   -0.3971 H   0  0  0  0  0  0  0  0  0  0  0  0
   -2.0551    0.6959   -2.4422 H   0  0  0  0  0  0  0  0  0  0  0  0
   -0.5776   -0.2874   -4.1413 H   0  0  0  0  0  0  0  0  0  0  0  0
    1.7982   -0.7150   -3.6309 H   0  0  0  0  0  0  0  0  0  0  0  0
    1.4208    0.0778    1.3325 H   0  0  0  0  0  0  0  0  0  0  0  0
    0.9441    1.7819    1.2007 H   0  0  0  0  0  0  0  0  0  0  0  0
    2.9830    2.3338   -0.0567 H   0  0  0  0  0  0  0  0  0  0  0  0
    3.3354    1.5586    1.5101 H   0  0  0  0  0  0  0  0  0  0  0  0
    5.2244   -1.8261   -0.6861 H   0  0  0  0  0  0  0  0  0  0  0  0
    7.5396   -2.1839   -0.0596 H   0  0  0  0  0  0  0  0  0  0  0  0
    9.3584   -1.2937    0.9590 H   0  0  0  0  0  0  0  0  0  0  0  0
    7.6797    1.6984    1.7751 H   0  0  0  0  0  0  0  0  0  0  0  0
    5.3690    2.1110    1.1108 H   0  0  0  0  0  0  0  0  0  0  0  0
  1  2  2  0
  2  3  1  0
  3  4  1  0
  4  5  1  0
  5  6  1  0
  5  7  1  0
  7  8  1  0
  8  9  1  0
  9 10  1  0
 10 11  1  0
 11 12  1  0
 12 13  2  0
 13 14  1  0
 14 15  2  0
 15 16  1  0
 16 17  2  0
 17 18  1  0
 18 19  1  0
 19 20  1  0
 20 21  1  0
 21 22  1  0
 22 23  2  0
 23 24  1  0
 24 25  1  0
 24 26  2  0
 26 27  1  0
 20 28  1  0
 28 29  2  0
  8  2  1  0
 17 12  1  0
 27 21  2  0
 28 16  1  0
  3 30  1  0
  3 31  1  0
  4 32  1  0
  4 33  1  0
  5 34  1  0
  6 35  1  0
  7 36  1  0
  7 37  1  0
  9 38  1  0
  9 39  1  0
 10 40  1  0
 10 41  1  0
 11 42  1  0
 11 43  1  0
 13 44  1  0
 14 45  1  0
 15 46  1  0
 18 47  1  0
 18 48  1  0
 19 49  1  0
 19 50  1  0
 22 51  1  0
 23 52  1  0
 25 53  1  0
 26 54  1  0
 27 55  1  0
M  END
>  <smiles>
O=C1CCC(O)CN1CCCc1cccc2c1CCN(c1ccc(O)cc1)C2=O

$$$$
