mol_6a23dc78b478
     RDKit          3D

 46 51  0  0  0  0  0  0  0  0999 V2000
   -2.5709    2.9254    2.4105 C   0  0  0  0  0  0  0  0  0  0  0  0
   -2.1109    1.7724    1.5614 C   0  0  0  0  0  0  0  0  0  0  0  0
   -0.7677    1.6952    1.1796 C   0  0  0  0  0  0  0  0  0  0  0  0
   -0.2783    0.6392    0.3870 C   0  0  0  0  0  0  0  0  0  0  0  0
   -1.1787   -0.3801   -0.0566 C   0  0  0  0  0  0  0  0  0  0  0  0
   -2.5616   -0.2648    0.2564 C   0  0  0  0  0  0  0  0  0  0  0  0
   -3.0016    0.8002    1.0802 C   0  0  0  0  0  0  0  0  0  0  0  0
   -4.4356    0.9453    1.4061 C   0  0  0  0  0  0  0  0  0  0  0  0
   -5.1882    1.8080    0.9997 O   0  0  0  0  0  0  0  0  0  0  0  0
   -4.8187    0.0027    2.2843 O   0  0  0  0  0  0  0  0  0  0  0  0
   -3.5955   -1.1745   -0.3890 C   0  0  0  0  0  0  0  0  0  0  0  0
   -3.0653   -2.3374   -1.2271 C   0  0  0  0  0  0  0  0  0  0  0  0
   -1.7462   -2.0026   -1.9080 C   0  0  0  0  0  0  0  0  0  0  0  0
   -0.7411   -1.6439   -0.8208 C   0  0  0  0  0  0  0  0  0  0  0  0
    0.6653   -1.4949   -1.2958 C   0  0  0  0  0  0  0  0  0  0  0  0
    1.4591   -2.3545   -2.1069 C   0  0  0  0  0  0  0  0  0  0  0  0
    2.7510   -1.8578   -2.1100 C   0  0  0  0  0  0  0  0  0  0  0  0
    2.7861   -0.7721   -1.2690 N   0  0  0  0  0  0  0  0  0  0  0  0
    1.5025   -0.4793   -0.9103 C   0  0  0  0  0  0  0  0  0  0  0  0
    1.1509    0.7375   -0.1500 C   0  0  0  0  0  0  0  0  0  0  0  0
    2.2936    1.0569    0.8143 C   0  0  0  0  0  0  0  0  0  0  0  0
    2.1641    1.5895    1.9132 O   0  0  0  0  0  0  0  0  0  0  0  0
    3.6735    0.7992    0.3052 C   0  0  0  0  0  0  0  0  0  0  0  0
    4.7767    1.4162    0.8964 C   0  0  0  0  0  0  0  0  0  0  0  0
    6.0533    1.1376    0.4116 C   0  0  0  0  0  0  0  0  0  0  0  0
    6.1833    0.2426   -0.6412 C   0  0  0  0  0  0  0  0  0  0  0  0
    5.1406   -0.3842   -1.2302 N   0  0  0  0  0  0  0  0  0  0  0  0
    3.9055   -0.0886   -0.7484 C   0  0  0  0  0  0  0  0  0  0  0  0
   -3.1289    3.6440    1.8022 H   0  0  0  0  0  0  0  0  0  0  0  0
   -3.2014    2.5747    3.2340 H   0  0  0  0  0  0  0  0  0  0  0  0
   -1.7224    3.4507    2.8623 H   0  0  0  0  0  0  0  0  0  0  0  0
   -0.0907    2.4896    1.4941 H   0  0  0  0  0  0  0  0  0  0  0  0
   -5.7585    0.2103    2.4649 H   0  0  0  0  0  0  0  0  0  0  0  0
   -4.2089   -0.5453   -1.0480 H   0  0  0  0  0  0  0  0  0  0  0  0
   -4.2590   -1.5936    0.3752 H   0  0  0  0  0  0  0  0  0  0  0  0
   -2.9203   -3.2099   -0.5763 H   0  0  0  0  0  0  0  0  0  0  0  0
   -3.8157   -2.6316   -1.9699 H   0  0  0  0  0  0  0  0  0  0  0  0
   -1.8778   -1.1774   -2.6195 H   0  0  0  0  0  0  0  0  0  0  0  0
   -1.4102   -2.8736   -2.4827 H   0  0  0  0  0  0  0  0  0  0  0  0
   -0.7190   -2.4534   -0.0750 H   0  0  0  0  0  0  0  0  0  0  0  0
    1.1399   -3.2627   -2.6031 H   0  0  0  0  0  0  0  0  0  0  0  0
    3.6574   -2.2315   -2.5686 H   0  0  0  0  0  0  0  0  0  0  0  0
    1.1322    1.5742   -0.8660 H   0  0  0  0  0  0  0  0  0  0  0  0
    4.6470    2.1038    1.7291 H   0  0  0  0  0  0  0  0  0  0  0  0
    6.9293    1.6037    0.8508 H   0  0  0  0  0  0  0  0  0  0  0  0
    7.1615   -0.0052   -1.0458 H   0  0  0  0  0  0  0  0  0  0  0  0
  1  2  1  0
  2  3  2  0
  3  4  1  0
  4  5  2  0
  5  6  1  0
  6  7  2  0
  7  8  1  0
  8  9  2  0
  8 10  1  0
  6 11  1  0
 11 12  1  0
 12 13  1  0
 13 14  1  0
 14 15  1  0
 15 16  1  0
 16 17  2  0
 17 18  1  0
 18 19  1  0
 19 20  1  0
 20 21  1  0
 21 22  2  0
 21 23  1  0
 23 24  1  0
 24 25  2  0
 25 26  1  0
 26 27  2  0
 27 28  1  0
  7  2  1  0
 19 15  2  0
 28 23  2  0
 20  4  1  0
 14  5  1  0
 28 18  1  0
  1 29  1  0
  1 30  1  0
  1 31  1  0
  3 32  1  0
 10 33  1  0
 11 34  1  0
 11 35  1  0
 12 36  1  0
 12 37  1  0
 13 38  1  0
 13 39  1  0
 14 40  1  0
 16 41  1  0
 17 42  1  0
 20 43  1  0
 24 44  1  0
 25 45  1  0
 26 46  1  0
M  END
>  <smiles>
Cc1cc2c3c(c1C(=O)O)CCCC3c1ccn3c1C2C(=O)c1cccnc1-3

$$$$
