mol_9a8d699101b1
     RDKit          3D

 51 54  0  0  0  0  0  0  0  0999 V2000
    7.3350    1.0623    0.1016 C   0  0  0  0  0  0  0  0  0  0  0  0
    6.5304    0.4127   -0.9930 C   0  0  0  0  0  0  0  0  0  0  0  0
    6.9264    0.3916   -2.1568 O   0  0  0  0  0  0  0  0  0  0  0  0
    5.2199   -0.2183   -0.6271 C   0  0  0  0  0  0  0  0  0  0  0  0
    5.0777   -1.4957   -1.0309 C   0  0  0  0  0  0  0  0  0  0  0  0
    3.9198   -2.4518   -0.9347 C   0  0  0  0  0  0  0  0  0  0  0  0
    2.5462   -1.8964   -0.6930 C   0  0  0  0  0  0  0  0  0  0  0  0
    2.2260   -0.8585    0.0932 C   0  0  0  0  0  0  0  0  0  0  0  0
    3.2316   -0.1362    0.9591 C   0  0  0  0  0  0  0  0  0  0  0  0
    4.2483    0.6444    0.1296 C   0  0  0  0  0  0  0  0  0  0  0  0
    2.3852    0.7236    1.7381 N   0  0  0  0  0  0  0  0  0  0  0  0
    1.0472    0.6180    1.3860 C   0  0  0  0  0  0  0  0  0  0  0  0
    0.1787    1.2999    1.9066 O   0  0  0  0  0  0  0  0  0  0  0  0
    0.9566   -0.3431    0.3514 N   0  0  0  0  0  0  0  0  0  0  0  0
   -0.2816   -0.6274   -0.2943 C   0  0  0  0  0  0  0  0  0  0  0  0
   -0.3355   -0.9122   -1.6693 C   0  0  0  0  0  0  0  0  0  0  0  0
   -1.5509   -1.1764   -2.3124 C   0  0  0  0  0  0  0  0  0  0  0  0
   -2.7389   -1.1500   -1.5898 C   0  0  0  0  0  0  0  0  0  0  0  0
   -2.6990   -0.8458   -0.2286 C   0  0  0  0  0  0  0  0  0  0  0  0
   -3.9467   -0.8255    0.5575 C   0  0  0  0  0  0  0  0  0  0  0  0
   -4.1300   -1.7272    1.3697 O   0  0  0  0  0  0  0  0  0  0  0  0
   -4.8450    0.2050    0.3277 N   0  0  0  0  0  0  0  0  0  0  0  0
   -6.1260    0.2018    1.0322 C   0  0  0  0  0  0  0  0  0  0  0  0
   -7.1893    0.9607    0.2342 C   0  0  0  0  0  0  0  0  0  0  0  0
   -6.8382    2.3213   -0.0630 O   0  0  0  0  0  0  0  0  0  0  0  0
   -5.4266    2.5763   -0.0562 C   0  0  0  0  0  0  0  0  0  0  0  0
   -4.5919    1.3775   -0.5176 C   0  0  0  0  0  0  0  0  0  0  0  0
   -1.4859   -0.5926    0.4199 C   0  0  0  0  0  0  0  0  0  0  0  0
    7.1206    2.1334    0.1273 H   0  0  0  0  0  0  0  0  0  0  0  0
    8.3995    0.9035   -0.0939 H   0  0  0  0  0  0  0  0  0  0  0  0
    7.1056    0.6127    1.0717 H   0  0  0  0  0  0  0  0  0  0  0  0
    5.9259   -1.9474   -1.5542 H   0  0  0  0  0  0  0  0  0  0  0  0
    3.8757   -2.9765   -1.8989 H   0  0  0  0  0  0  0  0  0  0  0  0
    4.1399   -3.2180   -0.1824 H   0  0  0  0  0  0  0  0  0  0  0  0
    1.7584   -2.4645   -1.1800 H   0  0  0  0  0  0  0  0  0  0  0  0
    3.7211   -0.8227    1.6603 H   0  0  0  0  0  0  0  0  0  0  0  0
    3.7410    1.3101   -0.5820 H   0  0  0  0  0  0  0  0  0  0  0  0
    4.7922    1.3052    0.8156 H   0  0  0  0  0  0  0  0  0  0  0  0
    2.6698    1.3371    2.4888 H   0  0  0  0  0  0  0  0  0  0  0  0
    0.5651   -0.8853   -2.2773 H   0  0  0  0  0  0  0  0  0  0  0  0
   -1.5650   -1.3942   -3.3776 H   0  0  0  0  0  0  0  0  0  0  0  0
   -3.6848   -1.3667   -2.0788 H   0  0  0  0  0  0  0  0  0  0  0  0
   -5.9550    0.6906    1.9985 H   0  0  0  0  0  0  0  0  0  0  0  0
   -6.4489   -0.8266    1.2245 H   0  0  0  0  0  0  0  0  0  0  0  0
   -8.1366    0.9768    0.7822 H   0  0  0  0  0  0  0  0  0  0  0  0
   -7.3725    0.4571   -0.7222 H   0  0  0  0  0  0  0  0  0  0  0  0
   -5.1455    2.8694    0.9622 H   0  0  0  0  0  0  0  0  0  0  0  0
   -5.2442    3.4373   -0.7069 H   0  0  0  0  0  0  0  0  0  0  0  0
   -3.5281    1.6312   -0.5078 H   0  0  0  0  0  0  0  0  0  0  0  0
   -4.8761    1.0948   -1.5375 H   0  0  0  0  0  0  0  0  0  0  0  0
   -1.5010   -0.3953    1.4894 H   0  0  0  0  0  0  0  0  0  0  0  0
  1  2  1  0
  2  3  2  0
  2  4  1  0
  4  5  2  0
  5  6  1  0
  6  7  1  0
  7  8  2  0
  8  9  1  0
  9 10  1  0
  9 11  1  0
 11 12  1  0
 12 13  2  0
 12 14  1  0
 14 15  1  0
 15 16  2  0
 16 17  1  0
 17 18  2  0
 18 19  1  0
 19 20  1  0
 20 21  2  0
 20 22  1  0
 22 23  1  0
 23 24  1  0
 24 25  1  0
 25 26  1  0
 26 27  1  0
 19 28  2  0
 10  4  1  0
 28 15  1  0
 14  8  1  0
 27 22  1  0
  1 29  1  0
  1 30  1  0
  1 31  1  0
  5 32  1  0
  6 33  1  0
  6 34  1  0
  7 35  1  0
  9 36  1  0
 10 37  1  0
 10 38  1  0
 11 39  1  0
 16 40  1  0
 17 41  1  0
 18 42  1  0
 23 43  1  0
 23 44  1  0
 24 45  1  0
 24 46  1  0
 26 47  1  0
 26 48  1  0
 27 49  1  0
 27 50  1  0
 28 51  1  0
M  END
>  <smiles>
CC(=O)C1=CCC=C2C(C1)NC(=O)N2c1cccc(C(=O)N2CCOCC2)c1

$$$$
