mol_65e20a0135b9
     RDKit          3D

 61 64  0  0  0  0  0  0  0  0999 V2000
   -7.9207    0.1743    1.8862 C   0  0  0  0  0  0  0  0  0  0  0  0
   -6.9762   -0.7609    1.1736 C   0  0  0  0  0  0  0  0  0  0  0  0
   -7.1423   -1.9786    1.2473 O   0  0  0  0  0  0  0  0  0  0  0  0
   -5.9339   -0.1858    0.4520 N   0  0  0  0  0  0  0  0  0  0  0  0
   -5.7193    1.2591    0.3451 C   0  0  0  0  0  0  0  0  0  0  0  0
   -4.2595    1.6091    0.0990 C   0  0  0  0  0  0  0  0  0  0  0  0
   -3.7249    0.9532   -1.1778 C   0  0  0  0  0  0  0  0  0  0  0  0
   -2.2917    0.7401   -1.0765 N   0  0  0  0  0  0  0  0  0  0  0  0
   -1.4392    0.7609   -2.1598 C   0  0  0  0  0  0  0  0  0  0  0  0
   -1.8000    1.0146   -3.3045 O   0  0  0  0  0  0  0  0  0  0  0  0
   -0.0459    0.4356   -1.7995 C   0  0  0  0  0  0  0  0  0  0  0  0
    0.2903    0.1416   -0.5272 N   0  0  0  0  0  0  0  0  0  0  0  0
    1.6228   -0.1109   -0.5580 N   0  0  0  0  0  0  0  0  0  0  0  0
    2.3237   -0.4582    0.6326 C   0  0  0  0  0  0  0  0  0  0  0  0
    1.6172   -0.5684    1.8433 C   0  0  0  0  0  0  0  0  0  0  0  0
    2.2768   -0.9255    3.0230 C   0  0  0  0  0  0  0  0  0  0  0  0
    3.6487   -1.1642    3.0089 C   0  0  0  0  0  0  0  0  0  0  0  0
    4.3576   -1.0306    1.8133 C   0  0  0  0  0  0  0  0  0  0  0  0
    5.8113   -1.2942    1.8190 C   0  0  0  0  0  0  0  0  0  0  0  0
    6.1993   -2.4205    2.1119 O   0  0  0  0  0  0  0  0  0  0  0  0
    6.6557   -0.2550    1.5084 N   0  0  0  0  0  0  0  0  0  0  0  0
    8.0843   -0.4137    1.5137 C   0  0  0  0  0  0  0  0  0  0  0  0
    8.5553    0.8759    0.8881 C   0  0  0  0  0  0  0  0  0  0  0  0
    7.5599    1.8415    1.2707 O   0  0  0  0  0  0  0  0  0  0  0  0
    6.3163    1.1322    1.3339 C   0  0  0  0  0  0  0  0  0  0  0  0
    3.7042   -0.6975    0.6195 C   0  0  0  0  0  0  0  0  0  0  0  0
    2.1296    0.0270   -1.8291 C   0  0  0  0  0  0  0  0  0  0  0  0
    1.0851    0.3760   -2.6583 C   0  0  0  0  0  0  0  0  0  0  0  0
    1.1310    0.6287   -4.1187 C   0  0  0  0  0  0  0  0  0  0  0  0
   -4.4611   -0.3446   -1.5410 C   0  0  0  0  0  0  0  0  0  0  0  0
   -5.0549   -1.0734   -0.3294 C   0  0  0  0  0  0  0  0  0  0  0  0
   -3.9796   -1.7156    0.5525 C   0  0  0  0  0  0  0  0  0  0  0  0
   -7.4096    0.6493    2.7276 H   0  0  0  0  0  0  0  0  0  0  0  0
   -8.7713   -0.3948    2.2733 H   0  0  0  0  0  0  0  0  0  0  0  0
   -8.3049    0.9318    1.1981 H   0  0  0  0  0  0  0  0  0  0  0  0
   -6.3472    1.6205   -0.4780 H   0  0  0  0  0  0  0  0  0  0  0  0
   -6.0581    1.7587    1.2569 H   0  0  0  0  0  0  0  0  0  0  0  0
   -4.1411    2.6972    0.0282 H   0  0  0  0  0  0  0  0  0  0  0  0
   -3.6693    1.3009    0.9713 H   0  0  0  0  0  0  0  0  0  0  0  0
   -3.8799    1.6519   -2.0106 H   0  0  0  0  0  0  0  0  0  0  0  0
   -1.8552    0.4713   -0.1973 H   0  0  0  0  0  0  0  0  0  0  0  0
    0.5433   -0.3926    1.8832 H   0  0  0  0  0  0  0  0  0  0  0  0
    1.7164   -1.0249    3.9498 H   0  0  0  0  0  0  0  0  0  0  0  0
    4.1632   -1.4564    3.9216 H   0  0  0  0  0  0  0  0  0  0  0  0
    8.4031   -1.3114    0.9769 H   0  0  0  0  0  0  0  0  0  0  0  0
    8.4043   -0.4897    2.5589 H   0  0  0  0  0  0  0  0  0  0  0  0
    9.5424    1.1900    1.2370 H   0  0  0  0  0  0  0  0  0  0  0  0
    8.5635    0.8140   -0.2059 H   0  0  0  0  0  0  0  0  0  0  0  0
    5.7161    1.5018    2.1701 H   0  0  0  0  0  0  0  0  0  0  0  0
    5.7774    1.2704    0.3922 H   0  0  0  0  0  0  0  0  0  0  0  0
    4.2909   -0.6498   -0.2921 H   0  0  0  0  0  0  0  0  0  0  0  0
    3.1719   -0.1345   -2.0570 H   0  0  0  0  0  0  0  0  0  0  0  0
    0.7983    1.6470   -4.3436 H   0  0  0  0  0  0  0  0  0  0  0  0
    2.1478    0.5136   -4.5081 H   0  0  0  0  0  0  0  0  0  0  0  0
    0.4850   -0.0762   -4.6514 H   0  0  0  0  0  0  0  0  0  0  0  0
   -3.8195   -1.0210   -2.1190 H   0  0  0  0  0  0  0  0  0  0  0  0
   -5.2958   -0.0789   -2.2052 H   0  0  0  0  0  0  0  0  0  0  0  0
   -5.6744   -1.8924   -0.7183 H   0  0  0  0  0  0  0  0  0  0  0  0
   -4.4350   -2.3355    1.3322 H   0  0  0  0  0  0  0  0  0  0  0  0
   -3.3587   -0.9729    1.0605 H   0  0  0  0  0  0  0  0  0  0  0  0
   -3.3236   -2.3594   -0.0426 H   0  0  0  0  0  0  0  0  0  0  0  0
  1  2  1  0
  2  3  2  0
  2  4  1  0
  4  5  1  0
  5  6  1  0
  6  7  1  0
  7  8  1  0
  8  9  1  0
  9 10  2  0
  9 11  1  0
 11 12  2  0
 12 13  1  0
 13 14  1  0
 14 15  2  0
 15 16  1  0
 16 17  2  0
 17 18  1  0
 18 19  1  0
 19 20  2  0
 19 21  1  0
 21 22  1  0
 22 23  1  0
 23 24  1  0
 24 25  1  0
 18 26  2  0
 13 27  1  0
 27 28  2  0
 28 29  1  0
  7 30  1  0
 30 31  1  0
 31 32  1  0
 31  4  1  0
 28 11  1  0
 26 14  1  0
 25 21  1  0
  1 33  1  0
  1 34  1  0
  1 35  1  0
  5 36  1  0
  5 37  1  0
  6 38  1  0
  6 39  1  0
  7 40  1  0
  8 41  1  0
 15 42  1  0
 16 43  1  0
 17 44  1  0
 22 45  1  0
 22 46  1  0
 23 47  1  0
 23 48  1  0
 25 49  1  0
 25 50  1  0
 26 51  1  0
 27 52  1  0
 29 53  1  0
 29 54  1  0
 29 55  1  0
 30 56  1  0
 30 57  1  0
 31 58  1  0
 32 59  1  0
 32 60  1  0
 32 61  1  0
M  END
>  <smiles>
CC(=O)N1CCC(NC(=O)c2nn(-c3cccc(C(=O)N4CCOC4)c3)cc2C)CC1C

$$$$
