mol_709a026b246d
     RDKit          3D

 65 67  0  0  0  0  0  0  0  0999 V2000
    5.4882   -2.7504   -3.7421 C   0  0  0  0  0  0  0  0  0  0  0  0
    5.3746   -2.0783   -2.4060 C   0  0  0  0  0  0  0  0  0  0  0  0
    5.4647   -2.8262   -1.2269 C   0  0  0  0  0  0  0  0  0  0  0  0
    5.3884   -2.1967    0.0153 C   0  0  0  0  0  0  0  0  0  0  0  0
    5.2333   -0.8132    0.0904 C   0  0  0  0  0  0  0  0  0  0  0  0
    5.1592   -0.0444   -1.0773 C   0  0  0  0  0  0  0  0  0  0  0  0
    4.9771    1.4539   -0.9969 C   0  0  0  0  0  0  0  0  0  0  0  0
    3.5129    1.8814   -1.1345 C   0  0  0  0  0  0  0  0  0  0  0  0
    2.6972    1.4720   -0.0098 N   0  0  0  0  0  0  0  0  0  0  0  0
    2.6285    2.1862    1.1600 C   0  0  0  0  0  0  0  0  0  0  0  0
    3.2345    3.2389    1.3466 O   0  0  0  0  0  0  0  0  0  0  0  0
    1.7259    1.5785    2.2180 C   0  0  0  0  0  0  0  0  0  0  0  0
    0.3292    2.1422    2.1745 C   0  0  0  0  0  0  0  0  0  0  0  0
    0.0300    3.2512    2.9831 C   0  0  0  0  0  0  0  0  0  0  0  0
   -1.2418    3.8143    2.9704 C   0  0  0  0  0  0  0  0  0  0  0  0
   -2.1940    3.2596    2.1386 C   0  0  0  0  0  0  0  0  0  0  0  0
   -1.9569    2.2066    1.3316 N   0  0  0  0  0  0  0  0  0  0  0  0
   -0.6981    1.6639    1.3538 C   0  0  0  0  0  0  0  0  0  0  0  0
   -0.5360    0.4949    0.4029 C   0  0  0  0  0  0  0  0  0  0  0  0
    0.5136   -0.1232    0.2706 O   0  0  0  0  0  0  0  0  0  0  0  0
   -1.6813    0.1874   -0.2958 N   0  0  0  0  0  0  0  0  0  0  0  0
   -1.8456   -0.9743   -1.1609 C   0  0  0  0  0  0  0  0  0  0  0  0
   -0.9413   -0.8959   -2.3928 C   0  0  0  0  0  0  0  0  0  0  0  0
   -3.3203   -1.1306   -1.6160 C   0  0  0  0  0  0  0  0  0  0  0  0
   -4.2771   -0.9760   -0.5048 N   0  0  0  0  0  0  0  0  0  0  0  0
   -4.3342   -1.8597    0.5638 C   0  0  0  0  0  0  0  0  0  0  0  0
   -5.1834   -1.7353    1.5972 C   0  0  0  0  0  0  0  0  0  0  0  0
   -5.2192   -2.6909    2.7547 C   0  0  0  0  0  0  0  0  0  0  0  0
   -6.4969   -3.3135    2.8430 O   0  0  0  0  0  0  0  0  0  0  0  0
   -6.0984   -0.6091    1.6053 C   0  0  0  0  0  0  0  0  0  0  0  0
   -6.1195    0.2561    0.5791 C   0  0  0  0  0  0  0  0  0  0  0  0
   -5.2258    0.1447   -0.6263 C   0  0  0  0  0  0  0  0  0  0  0  0
    5.2331   -0.6866   -2.3223 C   0  0  0  0  0  0  0  0  0  0  0  0
    6.5357   -2.7821   -4.0571 H   0  0  0  0  0  0  0  0  0  0  0  0
    5.1003   -3.7736   -3.6995 H   0  0  0  0  0  0  0  0  0  0  0  0
    4.9062   -2.2145   -4.4993 H   0  0  0  0  0  0  0  0  0  0  0  0
    5.5925   -3.9052   -1.2687 H   0  0  0  0  0  0  0  0  0  0  0  0
    5.4507   -2.7853    0.9267 H   0  0  0  0  0  0  0  0  0  0  0  0
    5.1704   -0.3357    1.0656 H   0  0  0  0  0  0  0  0  0  0  0  0
    5.5658    1.9209   -1.7966 H   0  0  0  0  0  0  0  0  0  0  0  0
    5.3990    1.8266   -0.0552 H   0  0  0  0  0  0  0  0  0  0  0  0
    3.4611    2.9729   -1.2174 H   0  0  0  0  0  0  0  0  0  0  0  0
    3.0587    1.4545   -2.0353 H   0  0  0  0  0  0  0  0  0  0  0  0
    2.1344    0.6220   -0.0983 H   0  0  0  0  0  0  0  0  0  0  0  0
    1.7273    0.4860    2.1635 H   0  0  0  0  0  0  0  0  0  0  0  0
    2.1822    1.7955    3.1935 H   0  0  0  0  0  0  0  0  0  0  0  0
    0.7957    3.6872    3.6235 H   0  0  0  0  0  0  0  0  0  0  0  0
   -1.4792    4.6696    3.5938 H   0  0  0  0  0  0  0  0  0  0  0  0
   -3.2019    3.6625    2.0954 H   0  0  0  0  0  0  0  0  0  0  0  0
   -2.5205    0.6774    0.0113 H   0  0  0  0  0  0  0  0  0  0  0  0
   -1.5526   -1.8494   -0.5682 H   0  0  0  0  0  0  0  0  0  0  0  0
   -1.1405    0.0132   -2.9711 H   0  0  0  0  0  0  0  0  0  0  0  0
   -1.1000   -1.7598   -3.0468 H   0  0  0  0  0  0  0  0  0  0  0  0
    0.1175   -0.8826   -2.1171 H   0  0  0  0  0  0  0  0  0  0  0  0
   -3.4630   -2.1118   -2.0856 H   0  0  0  0  0  0  0  0  0  0  0  0
   -3.5394   -0.3822   -2.3890 H   0  0  0  0  0  0  0  0  0  0  0  0
   -3.6205   -2.6781    0.5132 H   0  0  0  0  0  0  0  0  0  0  0  0
   -4.4686   -3.4816    2.6513 H   0  0  0  0  0  0  0  0  0  0  0  0
   -5.0242   -2.1684    3.6969 H   0  0  0  0  0  0  0  0  0  0  0  0
   -6.7860   -3.4842    1.9296 H   0  0  0  0  0  0  0  0  0  0  0  0
   -6.7658   -0.4890    2.4535 H   0  0  0  0  0  0  0  0  0  0  0  0
   -6.8138    1.0896    0.5975 H   0  0  0  0  0  0  0  0  0  0  0  0
   -5.8475    0.0013   -1.5175 H   0  0  0  0  0  0  0  0  0  0  0  0
   -4.6736    1.0839   -0.7440 H   0  0  0  0  0  0  0  0  0  0  0  0
    5.1793   -0.0972   -3.2356 H   0  0  0  0  0  0  0  0  0  0  0  0
  1  2  1  0
  2  3  1  0
  3  4  2  0
  4  5  1  0
  5  6  2  0
  6  7  1  0
  7  8  1  0
  8  9  1  0
  9 10  1  0
 10 11  2  0
 10 12  1  0
 12 13  1  0
 13 14  1  0
 14 15  2  0
 15 16  1  0
 16 17  2  0
 17 18  1  0
 18 19  1  0
 19 20  2  0
 19 21  1  0
 21 22  1  0
 22 23  1  0
 22 24  1  0
 24 25  1  0
 25 26  1  0
 26 27  2  0
 27 28  1  0
 28 29  1  0
 27 30  1  0
 30 31  2  0
 31 32  1  0
  6 33  1  0
 33  2  2  0
 18 13  2  0
 32 25  1  0
  1 34  1  0
  1 35  1  0
  1 36  1  0
  3 37  1  0
  4 38  1  0
  5 39  1  0
  7 40  1  0
  7 41  1  0
  8 42  1  0
  8 43  1  0
  9 44  1  0
 12 45  1  0
 12 46  1  0
 14 47  1  0
 15 48  1  0
 16 49  1  0
 21 50  1  0
 22 51  1  0
 23 52  1  0
 23 53  1  0
 23 54  1  0
 24 55  1  0
 24 56  1  0
 26 57  1  0
 28 58  1  0
 28 59  1  0
 29 60  1  0
 30 61  1  0
 31 62  1  0
 32 63  1  0
 32 64  1  0
 33 65  1  0
M  END
>  <smiles>
Cc1cccc(CCNC(=O)Cc2cccnc2C(=O)NC(C)CN2C=C(CO)C=CC2)c1

$$$$
