mol_dcbb2fe8beca
     RDKit          3D

 66 70  0  0  0  0  0  0  0  0999 V2000
   -7.7383    1.2881    2.6205 C   0  0  0  0  0  0  0  0  0  0  0  0
   -6.5933    2.2540    2.3615 C   0  0  0  0  0  0  0  0  0  0  0  0
   -5.3799    1.5326    1.8476 C   0  0  0  0  0  0  0  0  0  0  0  0
   -4.8933    1.5487    0.5901 C   0  0  0  0  0  0  0  0  0  0  0  0
   -5.5184    2.2759   -0.5708 C   0  0  0  0  0  0  0  0  0  0  0  0
   -3.6668    0.8093    0.2580 C   0  0  0  0  0  0  0  0  0  0  0  0
   -3.6279   -0.5400    0.1545 C   0  0  0  0  0  0  0  0  0  0  0  0
   -2.3604   -1.2322   -0.1737 C   0  0  0  0  0  0  0  0  0  0  0  0
   -1.1424   -0.4760   -0.2712 C   0  0  0  0  0  0  0  0  0  0  0  0
    0.1914   -0.8058   -0.4555 C   0  0  0  0  0  0  0  0  0  0  0  0
    0.9380    0.4066   -0.5233 C   0  0  0  0  0  0  0  0  0  0  0  0
    2.4201    0.5164   -0.7390 C   0  0  0  0  0  0  0  0  0  0  0  0
    3.1927    0.5734    0.5813 C   0  0  0  0  0  0  0  0  0  0  0  0
    4.6291    0.6086    0.3771 N   0  0  0  0  0  0  0  0  0  0  0  0
    5.3482   -0.5357    0.0980 C   0  0  0  0  0  0  0  0  0  0  0  0
    4.8290   -1.6433    0.0098 O   0  0  0  0  0  0  0  0  0  0  0  0
    6.8355   -0.2861   -0.0664 C   0  0  0  0  0  0  0  0  0  0  0  0
    7.1588    0.5876   -1.2825 C   0  0  0  0  0  0  0  0  0  0  0  0
    8.2113   -0.1885   -2.0615 C   0  0  0  0  0  0  0  0  0  0  0  0
    8.7822   -1.1022   -1.0755 N   0  0  0  0  0  0  0  0  0  0  0  0
    7.6276   -1.5647   -0.2995 C   0  0  0  0  0  0  0  0  0  0  0  0
    0.0394    1.4462   -0.3487 C   0  0  0  0  0  0  0  0  0  0  0  0
    0.3058    2.9166   -0.3224 C   0  0  0  0  0  0  0  0  0  0  0  0
   -1.2407    0.9092   -0.1822 N   0  0  0  0  0  0  0  0  0  0  0  0
   -2.4321    1.6292    0.0398 C   0  0  0  0  0  0  0  0  0  0  0  0
   -2.4214    2.8549    0.0652 O   0  0  0  0  0  0  0  0  0  0  0  0
    0.7592   -2.1829   -0.5813 C   0  0  0  0  0  0  0  0  0  0  0  0
   -0.1436   -3.2281    0.0445 C   0  0  0  0  0  0  0  0  0  0  0  0
   -1.3188   -3.3947   -0.7465 O   0  0  0  0  0  0  0  0  0  0  0  0
   -2.3746   -2.5700   -0.4352 C   0  0  0  0  0  0  0  0  0  0  0  0
   -3.6087   -3.3273   -0.4707 C   0  0  0  0  0  0  0  0  0  0  0  0
   -4.7751   -2.7928   -0.1005 C   0  0  0  0  0  0  0  0  0  0  0  0
   -4.8857   -1.3752    0.3560 C   0  0  0  0  0  0  0  0  0  0  0  0
   -8.0488    0.7872    1.6972 H   0  0  0  0  0  0  0  0  0  0  0  0
   -8.6034    1.8259    3.0212 H   0  0  0  0  0  0  0  0  0  0  0  0
   -7.4530    0.5190    3.3463 H   0  0  0  0  0  0  0  0  0  0  0  0
   -6.9235    3.0419    1.6780 H   0  0  0  0  0  0  0  0  0  0  0  0
   -6.3248    2.7583    3.2974 H   0  0  0  0  0  0  0  0  0  0  0  0
   -4.8421    0.9689    2.6108 H   0  0  0  0  0  0  0  0  0  0  0  0
   -4.9844    3.2087   -0.7774 H   0  0  0  0  0  0  0  0  0  0  0  0
   -5.4927    1.6575   -1.4755 H   0  0  0  0  0  0  0  0  0  0  0  0
   -6.5703    2.5184   -0.3960 H   0  0  0  0  0  0  0  0  0  0  0  0
    2.6475    1.4059   -1.3394 H   0  0  0  0  0  0  0  0  0  0  0  0
    2.7654   -0.3324   -1.3421 H   0  0  0  0  0  0  0  0  0  0  0  0
    2.9524   -0.2931    1.2086 H   0  0  0  0  0  0  0  0  0  0  0  0
    2.9257    1.4738    1.1456 H   0  0  0  0  0  0  0  0  0  0  0  0
    5.1110    1.4948    0.4606 H   0  0  0  0  0  0  0  0  0  0  0  0
    7.1982    0.2121    0.8430 H   0  0  0  0  0  0  0  0  0  0  0  0
    7.5671    1.5475   -0.9439 H   0  0  0  0  0  0  0  0  0  0  0  0
    6.2873    0.7998   -1.9112 H   0  0  0  0  0  0  0  0  0  0  0  0
    8.9723    0.4696   -2.4904 H   0  0  0  0  0  0  0  0  0  0  0  0
    7.7441   -0.7528   -2.8774 H   0  0  0  0  0  0  0  0  0  0  0  0
    9.2379   -1.8893   -1.5361 H   0  0  0  0  0  0  0  0  0  0  0  0
    7.9450   -2.0224    0.6425 H   0  0  0  0  0  0  0  0  0  0  0  0
    7.0677   -2.3144   -0.8711 H   0  0  0  0  0  0  0  0  0  0  0  0
   -0.2250    3.4224   -1.1349 H   0  0  0  0  0  0  0  0  0  0  0  0
    1.3710    3.1329   -0.4484 H   0  0  0  0  0  0  0  0  0  0  0  0
    0.0047    3.3496    0.6367 H   0  0  0  0  0  0  0  0  0  0  0  0
    0.9083   -2.4007   -1.6458 H   0  0  0  0  0  0  0  0  0  0  0  0
    1.7364   -2.2244   -0.0872 H   0  0  0  0  0  0  0  0  0  0  0  0
   -0.3899   -3.0129    1.0930 H   0  0  0  0  0  0  0  0  0  0  0  0
    0.3756   -4.1931    0.0345 H   0  0  0  0  0  0  0  0  0  0  0  0
   -3.5575   -4.3618   -0.7993 H   0  0  0  0  0  0  0  0  0  0  0  0
   -5.6786   -3.3945   -0.1194 H   0  0  0  0  0  0  0  0  0  0  0  0
   -5.7228   -0.9254   -0.1922 H   0  0  0  0  0  0  0  0  0  0  0  0
   -5.1472   -1.3887    1.4212 H   0  0  0  0  0  0  0  0  0  0  0  0
  1  2  1  0
  2  3  1  0
  3  4  2  3
  4  5  1  0
  4  6  1  0
  6  7  2  0
  7  8  1  0
  8  9  1  0
  9 10  2  0
 10 11  1  0
 11 12  1  0
 12 13  1  0
 13 14  1  0
 14 15  1  0
 15 16  2  0
 15 17  1  0
 17 18  1  0
 18 19  1  0
 19 20  1  0
 20 21  1  0
 11 22  2  0
 22 23  1  0
 22 24  1  0
 24 25  1  0
 25 26  2  0
 10 27  1  0
 27 28  1  0
 28 29  1  0
 29 30  1  0
 30 31  1  0
 31 32  2  0
 32 33  1  0
 25  6  1  0
 33  7  1  0
 30  8  2  0
 24  9  1  0
 21 17  1  0
  1 34  1  0
  1 35  1  0
  1 36  1  0
  2 37  1  0
  2 38  1  0
  3 39  1  0
  5 40  1  0
  5 41  1  0
  5 42  1  0
 12 43  1  0
 12 44  1  0
 13 45  1  0
 13 46  1  0
 14 47  1  0
 17 48  1  0
 18 49  1  0
 18 50  1  0
 19 51  1  0
 19 52  1  0
 20 53  1  0
 21 54  1  0
 21 55  1  0
 23 56  1  0
 23 57  1  0
 23 58  1  0
 27 59  1  0
 27 60  1  0
 28 61  1  0
 28 62  1  0
 31 63  1  0
 32 64  1  0
 33 65  1  0
 33 66  1  0
M  END
>  <smiles>
CCC=C(C)c1c2c3c4c(c(CCNC(=O)C5CCNC5)c(C)n4c1=O)CCOC=3C=CC2

$$$$
