mol_7b5665046b78
     RDKit          3D

 59 63  0  0  0  0  0  0  0  0999 V2000
   -1.8695    0.9026    3.0471 C   0  0  0  0  0  0  0  0  0  0  0  0
   -2.3320    0.4664    1.7024 C   0  0  0  0  0  0  0  0  0  0  0  0
   -3.3970    0.9946    0.9971 C   0  0  0  0  0  0  0  0  0  0  0  0
   -3.5248    0.3477   -0.2101 N   0  0  0  0  0  0  0  0  0  0  0  0
   -2.5268   -0.6168   -0.2745 C   0  0  0  0  0  0  0  0  0  0  0  0
   -1.7836   -0.5693    0.8935 C   0  0  0  0  0  0  0  0  0  0  0  0
   -0.6583   -1.4437    1.1731 C   0  0  0  0  0  0  0  0  0  0  0  0
   -0.8345   -2.8317    1.2419 C   0  0  0  0  0  0  0  0  0  0  0  0
    0.2476   -3.6700    1.5198 C   0  0  0  0  0  0  0  0  0  0  0  0
    1.5159   -3.1265    1.7263 C   0  0  0  0  0  0  0  0  0  0  0  0
    1.6974   -1.7401    1.6555 C   0  0  0  0  0  0  0  0  0  0  0  0
    3.0292   -1.1185    1.8562 C   0  0  0  0  0  0  0  0  0  0  0  0
    3.1222   -0.0533    2.4510 O   0  0  0  0  0  0  0  0  0  0  0  0
    4.0906   -1.7882    1.2858 N   0  0  0  0  0  0  0  0  0  0  0  0
    5.4428   -1.2490    1.3139 C   0  0  0  0  0  0  0  0  0  0  0  0
    5.7935   -0.4589    0.0414 C   0  0  0  0  0  0  0  0  0  0  0  0
    5.1400    0.8462   -0.0303 N   0  0  0  0  0  0  0  0  0  0  0  0
    3.9378    0.9847   -0.7088 C   0  0  0  0  0  0  0  0  0  0  0  0
    3.2998    2.1631   -0.7476 C   0  0  0  0  0  0  0  0  0  0  0  0
    2.1047    2.3836   -1.3783 O   0  0  0  0  0  0  0  0  0  0  0  0
    3.8568    3.3109   -0.0863 C   0  0  0  0  0  0  0  0  0  0  0  0
    5.0093    3.2121    0.5887 C   0  0  0  0  0  0  0  0  0  0  0  0
    5.7310    1.9117    0.6531 C   0  0  0  0  0  0  0  0  0  0  0  0
    6.7905    1.8377    1.2713 O   0  0  0  0  0  0  0  0  0  0  0  0
    0.6102   -0.8989    1.3929 C   0  0  0  0  0  0  0  0  0  0  0  0
   -2.4439   -1.5108   -1.4677 C   0  0  0  0  0  0  0  0  0  0  0  0
   -2.8777   -0.7766   -2.7316 C   0  0  0  0  0  0  0  0  0  0  0  0
   -4.1643   -0.0137   -2.5199 C   0  0  0  0  0  0  0  0  0  0  0  0
   -5.0240    0.1936   -3.6080 C   0  0  0  0  0  0  0  0  0  0  0  0
   -6.1756    0.9605   -3.4570 C   0  0  0  0  0  0  0  0  0  0  0  0
   -6.4742    1.5339   -2.2222 C   0  0  0  0  0  0  0  0  0  0  0  0
   -5.6210    1.3464   -1.1286 C   0  0  0  0  0  0  0  0  0  0  0  0
   -5.9839    1.9013    0.0648 O   0  0  0  0  0  0  0  0  0  0  0  0
   -4.4574    0.5771   -1.2672 C   0  0  0  0  0  0  0  0  0  0  0  0
   -2.6221    1.5265    3.5403 H   0  0  0  0  0  0  0  0  0  0  0  0
   -0.9477    1.4864    2.9617 H   0  0  0  0  0  0  0  0  0  0  0  0
   -1.6775    0.0390    3.6917 H   0  0  0  0  0  0  0  0  0  0  0  0
   -4.0514    1.8082    1.2703 H   0  0  0  0  0  0  0  0  0  0  0  0
   -1.8227   -3.2635    1.0968 H   0  0  0  0  0  0  0  0  0  0  0  0
    0.0952   -4.7443    1.5891 H   0  0  0  0  0  0  0  0  0  0  0  0
    2.3432   -3.7859    1.9732 H   0  0  0  0  0  0  0  0  0  0  0  0
    3.9269   -2.6413    0.7700 H   0  0  0  0  0  0  0  0  0  0  0  0
    5.5738   -0.6321    2.2093 H   0  0  0  0  0  0  0  0  0  0  0  0
    6.1114   -2.1126    1.3954 H   0  0  0  0  0  0  0  0  0  0  0  0
    5.5436   -1.0390   -0.8556 H   0  0  0  0  0  0  0  0  0  0  0  0
    6.8784   -0.2985    0.0241 H   0  0  0  0  0  0  0  0  0  0  0  0
    3.5404    0.0982   -1.1887 H   0  0  0  0  0  0  0  0  0  0  0  0
    1.7632    1.5322   -1.6975 H   0  0  0  0  0  0  0  0  0  0  0  0
    3.3156    4.2491   -0.1351 H   0  0  0  0  0  0  0  0  0  0  0  0
    5.4576    4.0455    1.1117 H   0  0  0  0  0  0  0  0  0  0  0  0
    0.7597    0.1789    1.3529 H   0  0  0  0  0  0  0  0  0  0  0  0
   -1.4264   -1.8921   -1.6069 H   0  0  0  0  0  0  0  0  0  0  0  0
   -3.0962   -2.3771   -1.2979 H   0  0  0  0  0  0  0  0  0  0  0  0
   -2.9888   -1.5040   -3.5445 H   0  0  0  0  0  0  0  0  0  0  0  0
   -2.1046   -0.0585   -3.0340 H   0  0  0  0  0  0  0  0  0  0  0  0
   -4.7941   -0.2345   -4.5813 H   0  0  0  0  0  0  0  0  0  0  0  0
   -6.8398    1.1154   -4.3035 H   0  0  0  0  0  0  0  0  0  0  0  0
   -7.3814    2.1243   -2.1298 H   0  0  0  0  0  0  0  0  0  0  0  0
   -6.8271    2.3712   -0.0374 H   0  0  0  0  0  0  0  0  0  0  0  0
  1  2  1  0
  2  3  2  0
  3  4  1  0
  4  5  1  0
  5  6  2  0
  6  7  1  0
  7  8  2  0
  8  9  1  0
  9 10  2  0
 10 11  1  0
 11 12  1  0
 12 13  2  0
 12 14  1  0
 14 15  1  0
 15 16  1  0
 16 17  1  0
 17 18  1  0
 18 19  2  0
 19 20  1  0
 19 21  1  0
 21 22  2  0
 22 23  1  0
 23 24  2  0
 11 25  2  0
  5 26  1  0
 26 27  1  0
 27 28  1  0
 28 29  2  0
 29 30  1  0
 30 31  2  0
 31 32  1  0
 32 33  1  0
 32 34  2  0
  6  2  1  0
 25  7  1  0
 34 28  1  0
 34  4  1  0
 23 17  1  0
  1 35  1  0
  1 36  1  0
  1 37  1  0
  3 38  1  0
  8 39  1  0
  9 40  1  0
 10 41  1  0
 14 42  1  0
 15 43  1  0
 15 44  1  0
 16 45  1  0
 16 46  1  0
 18 47  1  0
 20 48  1  0
 21 49  1  0
 22 50  1  0
 25 51  1  0
 26 52  1  0
 26 53  1  0
 27 54  1  0
 27 55  1  0
 29 56  1  0
 30 57  1  0
 31 58  1  0
 33 59  1  0
M  END
>  <smiles>
Cc1cn2c(c1-c1cccc(C(=O)NCCn3cc(O)ccc3=O)c1)CCc1cccc(O)c1-2

$$$$
