mol_4aad30680170
     RDKit          3D

 54 57  0  0  0  0  0  0  0  0999 V2000
    8.0375    0.6699    0.7655 C   0  0  0  0  0  0  0  0  0  0  0  0
    6.5229    0.6279    0.6399 C   0  0  0  0  0  0  0  0  0  0  0  0
    6.0819   -0.3059   -0.4878 C   0  0  0  0  0  0  0  0  0  0  0  0
    4.5794   -0.3516   -0.6171 C   0  0  0  0  0  0  0  0  0  0  0  0
    3.9105    0.5556   -1.4490 C   0  0  0  0  0  0  0  0  0  0  0  0
    2.5181    0.5241   -1.5564 C   0  0  0  0  0  0  0  0  0  0  0  0
    1.7756   -0.4105   -0.8260 C   0  0  0  0  0  0  0  0  0  0  0  0
    0.3089   -0.4414   -0.9369 C   0  0  0  0  0  0  0  0  0  0  0  0
   -0.1858   -1.0900   -2.0387 N   0  0  0  0  0  0  0  0  0  0  0  0
   -1.5111   -1.2263   -2.3351 C   0  0  0  0  0  0  0  0  0  0  0  0
   -1.8913   -1.8115   -3.3437 O   0  0  0  0  0  0  0  0  0  0  0  0
   -2.4629   -0.6222   -1.3583 C   0  0  0  0  0  0  0  0  0  0  0  0
   -1.9853    0.0038   -0.2538 C   0  0  0  0  0  0  0  0  0  0  0  0
   -0.5281    0.1208   -0.0347 C   0  0  0  0  0  0  0  0  0  0  0  0
   -0.0193    0.8967    1.1674 C   0  0  0  0  0  0  0  0  0  0  0  0
    0.0862    0.0286    2.4045 C   0  0  0  0  0  0  0  0  0  0  0  0
   -0.0360   -1.1814    2.4944 O   0  0  0  0  0  0  0  0  0  0  0  0
    0.3666    0.7607    3.5048 O   0  0  0  0  0  0  0  0  0  0  0  0
   -2.9403    0.5813    0.7848 C   0  0  0  0  0  0  0  0  0  0  0  0
   -4.3650    0.0641    0.6062 C   0  0  0  0  0  0  0  0  0  0  0  0
   -5.4660    0.8391    1.3164 C   0  0  0  0  0  0  0  0  0  0  0  0
   -6.7359    0.5020    0.5211 C   0  0  0  0  0  0  0  0  0  0  0  0
   -6.2731   -0.1476   -0.7913 C   0  0  0  0  0  0  0  0  0  0  0  0
   -4.7840    0.1606   -0.8541 C   0  0  0  0  0  0  0  0  0  0  0  0
   -3.9278   -0.7678   -1.7042 C   0  0  0  0  0  0  0  0  0  0  0  0
    2.4408   -1.3181    0.0057 C   0  0  0  0  0  0  0  0  0  0  0  0
    3.8328   -1.2856    0.1127 C   0  0  0  0  0  0  0  0  0  0  0  0
    8.3321    1.3428    1.5769 H   0  0  0  0  0  0  0  0  0  0  0  0
    8.4979    1.0314   -0.1596 H   0  0  0  0  0  0  0  0  0  0  0  0
    8.4406   -0.3239    0.9851 H   0  0  0  0  0  0  0  0  0  0  0  0
    6.1494    1.6429    0.4579 H   0  0  0  0  0  0  0  0  0  0  0  0
    6.0926    0.2984    1.5935 H   0  0  0  0  0  0  0  0  0  0  0  0
    6.4629   -1.3198   -0.3109 H   0  0  0  0  0  0  0  0  0  0  0  0
    6.5195    0.0180   -1.4407 H   0  0  0  0  0  0  0  0  0  0  0  0
    4.4710    1.2931   -2.0196 H   0  0  0  0  0  0  0  0  0  0  0  0
    2.0161    1.2345   -2.2095 H   0  0  0  0  0  0  0  0  0  0  0  0
    0.4553   -1.5126   -2.6983 H   0  0  0  0  0  0  0  0  0  0  0  0
    0.9739    1.3192    0.9794 H   0  0  0  0  0  0  0  0  0  0  0  0
   -0.6706    1.7506    1.3822 H   0  0  0  0  0  0  0  0  0  0  0  0
    0.4270    0.0934    4.2209 H   0  0  0  0  0  0  0  0  0  0  0  0
   -2.6199    0.3192    1.7990 H   0  0  0  0  0  0  0  0  0  0  0  0
   -2.9241    1.6756    0.7054 H   0  0  0  0  0  0  0  0  0  0  0  0
   -4.4063   -0.9849    0.9371 H   0  0  0  0  0  0  0  0  0  0  0  0
   -5.5565    0.5577    2.3701 H   0  0  0  0  0  0  0  0  0  0  0  0
   -5.2801    1.9189    1.2738 H   0  0  0  0  0  0  0  0  0  0  0  0
   -7.3158    1.4111    0.3284 H   0  0  0  0  0  0  0  0  0  0  0  0
   -7.3799   -0.1863    1.0791 H   0  0  0  0  0  0  0  0  0  0  0  0
   -6.4518   -1.2288   -0.7506 H   0  0  0  0  0  0  0  0  0  0  0  0
   -6.8144    0.2474   -1.6565 H   0  0  0  0  0  0  0  0  0  0  0  0
   -4.6543    1.1936   -1.2112 H   0  0  0  0  0  0  0  0  0  0  0  0
   -4.2220   -1.8136   -1.5510 H   0  0  0  0  0  0  0  0  0  0  0  0
   -4.1003   -0.5325   -2.7611 H   0  0  0  0  0  0  0  0  0  0  0  0
    1.8775   -2.0557    0.5753 H   0  0  0  0  0  0  0  0  0  0  0  0
    4.3309   -1.9964    0.7687 H   0  0  0  0  0  0  0  0  0  0  0  0
  1  2  1  0
  2  3  1  0
  3  4  1  0
  4  5  1  0
  5  6  2  0
  6  7  1  0
  7  8  1  0
  8  9  1  0
  9 10  1  0
 10 11  2  0
 10 12  1  0
 12 13  2  0
 13 14  1  0
 14 15  1  0
 15 16  1  0
 16 17  2  0
 16 18  1  0
 13 19  1  0
 19 20  1  0
 20 21  1  0
 21 22  1  0
 22 23  1  0
 23 24  1  0
 24 25  1  0
  7 26  2  0
 26 27  1  0
 27  4  2  0
 14  8  2  0
 24 20  1  0
 25 12  1  0
  1 28  1  0
  1 29  1  0
  1 30  1  0
  2 31  1  0
  2 32  1  0
  3 33  1  0
  3 34  1  0
  5 35  1  0
  6 36  1  0
  9 37  1  0
 15 38  1  0
 15 39  1  0
 18 40  1  0
 19 41  1  0
 19 42  1  0
 20 43  1  0
 21 44  1  0
 21 45  1  0
 22 46  1  0
 22 47  1  0
 23 48  1  0
 23 49  1  0
 24 50  1  0
 25 51  1  0
 25 52  1  0
 26 53  1  0
 27 54  1  0
M  END
>  <smiles>
CCCc1ccc(-c2[nH]c(=O)c3c(c2CC(=O)O)CC2CCCC2C3)cc1

$$$$
