mol_1c516f79b585
     RDKit          3D

 47 48  0  0  0  0  0  0  0  0999 V2000
    3.0185   -1.7252   -1.4308 C   0  0  0  0  0  0  0  0  0  0  0  0
    2.6172   -0.6660   -2.4293 C   0  0  0  0  0  0  0  0  0  0  0  0
    2.6305   -0.9264   -3.8161 C   0  0  0  0  0  0  0  0  0  0  0  0
    3.1000   -2.4576   -4.4740 Cl  0  0  0  0  0  0  0  0  0  0  0  0
    2.2536    0.0538   -4.7373 C   0  0  0  0  0  0  0  0  0  0  0  0
    1.8535    1.3068   -4.2942 C   0  0  0  0  0  0  0  0  0  0  0  0
    1.8221    1.5818   -2.9278 C   0  0  0  0  0  0  0  0  0  0  0  0
    2.1906    0.6129   -1.9847 C   0  0  0  0  0  0  0  0  0  0  0  0
    2.1512    0.8788   -0.5954 N   0  0  0  0  0  0  0  0  0  0  0  0
    1.6854    2.0126    0.0539 C   0  0  0  0  0  0  0  0  0  0  0  0
    1.1464    2.9903   -0.4572 O   0  0  0  0  0  0  0  0  0  0  0  0
    1.8257    1.9067    1.5759 C   0  0  0  0  0  0  0  0  0  0  0  0
    0.7789    1.0336    2.1070 N   0  0  0  0  0  0  0  0  0  0  0  0
   -0.5313    1.6216    2.3880 C   0  0  0  0  0  0  0  0  0  0  0  0
   -1.6289    1.1780    1.4012 C   0  0  0  0  0  0  0  0  0  0  0  0
   -2.2085   -0.1505    1.7031 N   0  0  0  0  0  0  0  0  0  0  0  0
   -3.4603   -0.3660    0.9357 C   0  0  0  0  0  0  0  0  0  0  0  0
   -3.2725   -0.6799   -0.5536 C   0  0  0  0  0  0  0  0  0  0  0  0
   -4.3248   -1.4467    1.5998 C   0  0  0  0  0  0  0  0  0  0  0  0
   -1.2280   -1.2405    1.5523 C   0  0  0  0  0  0  0  0  0  0  0  0
   -0.1236   -1.2048    2.6060 C   0  0  0  0  0  0  0  0  0  0  0  0
    1.0099   -0.3273    2.1430 C   0  0  0  0  0  0  0  0  0  0  0  0
    2.0760   -0.8119    1.7561 O   0  0  0  0  0  0  0  0  0  0  0  0
    3.8003   -1.3422   -0.7660 H   0  0  0  0  0  0  0  0  0  0  0  0
    3.4290   -2.6288   -1.8860 H   0  0  0  0  0  0  0  0  0  0  0  0
    2.1476   -2.0269   -0.8396 H   0  0  0  0  0  0  0  0  0  0  0  0
    2.2703   -0.1556   -5.8041 H   0  0  0  0  0  0  0  0  0  0  0  0
    1.5625    2.0733   -5.0080 H   0  0  0  0  0  0  0  0  0  0  0  0
    1.5050    2.5767   -2.6306 H   0  0  0  0  0  0  0  0  0  0  0  0
    2.4458    0.1278    0.0287 H   0  0  0  0  0  0  0  0  0  0  0  0
    2.8162    1.5048    1.8178 H   0  0  0  0  0  0  0  0  0  0  0  0
    1.7529    2.9004    2.0294 H   0  0  0  0  0  0  0  0  0  0  0  0
   -0.4390    2.7133    2.3525 H   0  0  0  0  0  0  0  0  0  0  0  0
   -0.8132    1.3664    3.4162 H   0  0  0  0  0  0  0  0  0  0  0  0
   -1.2520    1.2212    0.3724 H   0  0  0  0  0  0  0  0  0  0  0  0
   -2.4266    1.9270    1.4848 H   0  0  0  0  0  0  0  0  0  0  0  0
   -4.0573    0.5537    1.0015 H   0  0  0  0  0  0  0  0  0  0  0  0
   -2.7769   -1.6434   -0.7108 H   0  0  0  0  0  0  0  0  0  0  0  0
   -2.6868    0.0947   -1.0581 H   0  0  0  0  0  0  0  0  0  0  0  0
   -4.2455   -0.7285   -1.0553 H   0  0  0  0  0  0  0  0  0  0  0  0
   -4.4576   -1.2409    2.6677 H   0  0  0  0  0  0  0  0  0  0  0  0
   -3.8978   -2.4486    1.4934 H   0  0  0  0  0  0  0  0  0  0  0  0
   -5.3215   -1.4671    1.1445 H   0  0  0  0  0  0  0  0  0  0  0  0
   -0.7957   -1.2445    0.5433 H   0  0  0  0  0  0  0  0  0  0  0  0
   -1.7359   -2.2020    1.6830 H   0  0  0  0  0  0  0  0  0  0  0  0
    0.2819   -2.2158    2.7379 H   0  0  0  0  0  0  0  0  0  0  0  0
   -0.4872   -0.8890    3.5894 H   0  0  0  0  0  0  0  0  0  0  0  0
  1  2  1  0
  2  3  2  0
  3  4  1  0
  3  5  1  0
  5  6  2  0
  6  7  1  0
  7  8  2  0
  8  9  1  0
  9 10  1  0
 10 11  2  0
 10 12  1  0
 12 13  1  0
 13 14  1  0
 14 15  1  0
 15 16  1  0
 16 17  1  0
 17 18  1  0
 17 19  1  0
 16 20  1  0
 20 21  1  0
 21 22  1  0
 22 23  2  0
  8  2  1  0
 22 13  1  0
  1 24  1  0
  1 25  1  0
  1 26  1  0
  5 27  1  0
  6 28  1  0
  7 29  1  0
  9 30  1  0
 12 31  1  0
 12 32  1  0
 14 33  1  0
 14 34  1  0
 15 35  1  0
 15 36  1  0
 17 37  1  0
 18 38  1  0
 18 39  1  0
 18 40  1  0
 19 41  1  0
 19 42  1  0
 19 43  1  0
 20 44  1  0
 20 45  1  0
 21 46  1  0
 21 47  1  0
M  END
>  <smiles>
Cc1c(Cl)cccc1NC(=O)CN1CCN(C(C)C)CCC1=O

$$$$
