mol_dfa0c879c7a3
     RDKit          3D

 54 57  0  0  0  0  0  0  0  0999 V2000
   -3.8502   -1.8228    1.7493 C   0  0  0  0  0  0  0  0  0  0  0  0
   -3.2126   -0.6469    0.9886 C   0  0  0  0  0  0  0  0  0  0  0  0
   -2.8362    0.4364    2.0209 C   0  0  0  0  0  0  0  0  0  0  0  0
   -4.2327   -0.0791   -0.0230 C   0  0  0  0  0  0  0  0  0  0  0  0
   -3.6575    1.0290   -0.9225 C   0  0  0  0  0  0  0  0  0  0  0  0
   -2.2423    0.8398   -1.2348 N   0  0  0  0  0  0  0  0  0  0  0  0
   -1.8501    1.3264   -2.5578 C   0  0  0  0  0  0  0  0  0  0  0  0
   -0.5807    0.5450   -2.9145 C   0  0  0  0  0  0  0  0  0  0  0  0
   -0.4028   -0.4996   -1.8008 C   0  0  0  0  0  0  0  0  0  0  0  0
    0.7089   -0.1760   -0.8833 N   0  0  0  0  0  0  0  0  0  0  0  0
    0.7518    1.1317   -0.2119 C   0  0  0  0  0  0  0  0  0  0  0  0
    2.1657    1.5708    0.1621 C   0  0  0  0  0  0  0  0  0  0  0  0
    2.3881    2.7272    0.5285 O   0  0  0  0  0  0  0  0  0  0  0  0
    3.2587    0.5007    0.1101 C   0  0  0  0  0  0  0  0  0  0  0  0
    3.8143    0.4600   -1.3262 C   0  0  0  0  0  0  0  0  0  0  0  0
    4.4376    0.8318    1.0633 C   0  0  0  0  0  0  0  0  0  0  0  0
    4.1620    0.4305    2.5119 C   0  0  0  0  0  0  0  0  0  0  0  0
    3.8606   -1.0646    2.6179 C   0  0  0  0  0  0  0  0  0  0  0  0
    2.8550   -1.5078    1.6004 C   0  0  0  0  0  0  0  0  0  0  0  0
    2.5689   -0.7875    0.5020 C   0  0  0  0  0  0  0  0  0  0  0  0
    1.4356   -1.2355   -0.3536 C   0  0  0  0  0  0  0  0  0  0  0  0
    1.2223   -2.4197   -0.5776 O   0  0  0  0  0  0  0  0  0  0  0  0
   -1.8110   -0.5583   -1.1695 C   0  0  0  0  0  0  0  0  0  0  0  0
   -1.9350   -1.1370    0.2461 C   0  0  0  0  0  0  0  0  0  0  0  0
   -4.7415   -1.5016    2.3001 H   0  0  0  0  0  0  0  0  0  0  0  0
   -4.1546   -2.6204    1.0623 H   0  0  0  0  0  0  0  0  0  0  0  0
   -3.1474   -2.2543    2.4710 H   0  0  0  0  0  0  0  0  0  0  0  0
   -3.7271    0.8203    2.5308 H   0  0  0  0  0  0  0  0  0  0  0  0
   -2.1653    0.0325    2.7879 H   0  0  0  0  0  0  0  0  0  0  0  0
   -2.3263    1.2872    1.5582 H   0  0  0  0  0  0  0  0  0  0  0  0
   -5.1196    0.3052    0.4967 H   0  0  0  0  0  0  0  0  0  0  0  0
   -4.5876   -0.8972   -0.6654 H   0  0  0  0  0  0  0  0  0  0  0  0
   -3.7703    1.9993   -0.4250 H   0  0  0  0  0  0  0  0  0  0  0  0
   -4.2757    1.0705   -1.8281 H   0  0  0  0  0  0  0  0  0  0  0  0
   -1.6625    2.4046   -2.5394 H   0  0  0  0  0  0  0  0  0  0  0  0
   -2.6144    1.1252   -3.3187 H   0  0  0  0  0  0  0  0  0  0  0  0
    0.2897    1.1991   -3.0308 H   0  0  0  0  0  0  0  0  0  0  0  0
   -0.7337    0.0361   -3.8743 H   0  0  0  0  0  0  0  0  0  0  0  0
   -0.1807   -1.4684   -2.2649 H   0  0  0  0  0  0  0  0  0  0  0  0
    0.1636    1.0689    0.7083 H   0  0  0  0  0  0  0  0  0  0  0  0
    0.3460    1.9055   -0.8662 H   0  0  0  0  0  0  0  0  0  0  0  0
    4.3489    1.3885   -1.5606 H   0  0  0  0  0  0  0  0  0  0  0  0
    3.0307    0.3548   -2.0840 H   0  0  0  0  0  0  0  0  0  0  0  0
    4.5144   -0.3733   -1.4567 H   0  0  0  0  0  0  0  0  0  0  0  0
    4.6865    1.8992    1.0260 H   0  0  0  0  0  0  0  0  0  0  0  0
    5.3405    0.2983    0.7344 H   0  0  0  0  0  0  0  0  0  0  0  0
    3.3154    1.0103    2.9008 H   0  0  0  0  0  0  0  0  0  0  0  0
    5.0279    0.6746    3.1379 H   0  0  0  0  0  0  0  0  0  0  0  0
    3.4790   -1.2782    3.6228 H   0  0  0  0  0  0  0  0  0  0  0  0
    4.7787   -1.6493    2.4883 H   0  0  0  0  0  0  0  0  0  0  0  0
    2.3187   -2.4329    1.8066 H   0  0  0  0  0  0  0  0  0  0  0  0
   -2.4461   -1.1567   -1.8416 H   0  0  0  0  0  0  0  0  0  0  0  0
   -1.0601   -0.9114    0.8628 H   0  0  0  0  0  0  0  0  0  0  0  0
   -1.9456   -2.2308    0.1499 H   0  0  0  0  0  0  0  0  0  0  0  0
  1  2  1  0
  2  3  1  0
  2  4  1  0
  4  5  1  0
  5  6  1  0
  6  7  1  0
  7  8  1  0
  8  9  1  0
  9 10  1  0
 10 11  1  0
 11 12  1  0
 12 13  2  0
 12 14  1  0
 14 15  1  0
 14 16  1  0
 16 17  1  0
 17 18  1  0
 18 19  1  0
 19 20  2  0
 20 21  1  0
 21 22  2  0
  9 23  1  0
 23 24  1  0
 24  2  1  0
 23  6  1  0
 21 10  1  0
 20 14  1  0
  1 25  1  0
  1 26  1  0
  1 27  1  0
  3 28  1  0
  3 29  1  0
  3 30  1  0
  4 31  1  0
  4 32  1  0
  5 33  1  0
  5 34  1  0
  7 35  1  0
  7 36  1  0
  8 37  1  0
  8 38  1  0
  9 39  1  0
 11 40  1  0
 11 41  1  0
 15 42  1  0
 15 43  1  0
 15 44  1  0
 16 45  1  0
 16 46  1  0
 17 47  1  0
 17 48  1  0
 18 49  1  0
 18 50  1  0
 19 51  1  0
 23 52  1  0
 24 53  1  0
 24 54  1  0
M  END
>  <smiles>
CC1(C)CCN2CCC(N3CC(=O)C4(C)CCCC=C4C3=O)C2C1

$$$$
