mol_003b3f251ce6
     RDKit          3D

 45 46  0  0  0  0  0  0  0  0999 V2000
   -1.3957    2.4485    1.1683 O   0  0  0  0  0  0  0  0  0  0  0  0
   -1.1572    1.2446    1.2132 C   0  0  0  0  0  0  0  0  0  0  0  0
    0.2410    0.7331    1.5780 C   0  0  0  0  0  0  0  0  0  0  0  0
    1.0053    0.4240    0.3655 N   0  0  0  0  0  0  0  0  0  0  0  0
    1.6957    1.5631   -0.2690 C   0  0  0  0  0  0  0  0  0  0  0  0
    2.8772    1.2737   -1.2104 C   0  0  0  0  0  0  0  0  0  0  0  0
    3.6524    0.1005   -0.7767 N   0  0  0  0  0  0  0  0  0  0  0  0
    4.8833    0.1904   -0.0362 C   0  0  0  0  0  0  0  0  0  0  0  0
    5.3160    1.2895    0.6157 C   0  0  0  0  0  0  0  0  0  0  0  0
    4.5751    2.4187    0.6387 F   0  0  0  0  0  0  0  0  0  0  0  0
    6.4727    1.2818    1.3106 F   0  0  0  0  0  0  0  0  0  0  0  0
    5.7999   -1.0365    0.0529 C   0  0  0  0  0  0  0  0  0  0  0  0
    5.8871   -1.6811   -1.1446 F   0  0  0  0  0  0  0  0  0  0  0  0
    5.3194   -1.9462    0.9423 F   0  0  0  0  0  0  0  0  0  0  0  0
    7.0793   -0.7699    0.4199 F   0  0  0  0  0  0  0  0  0  0  0  0
    3.0923   -1.2075   -1.1859 C   0  0  0  0  0  0  0  0  0  0  0  0
    1.5894   -1.1995   -1.4299 C   0  0  0  0  0  0  0  0  0  0  0  0
    0.8257   -0.8326   -0.1854 C   0  0  0  0  0  0  0  0  0  0  0  0
    0.0213   -1.6352    0.3009 O   0  0  0  0  0  0  0  0  0  0  0  0
   -2.0229    0.2148    0.8834 N   0  0  0  0  0  0  0  0  0  0  0  0
   -3.3807    0.3043    0.5293 C   0  0  0  0  0  0  0  0  0  0  0  0
   -4.1122    1.4916    0.5405 C   0  0  0  0  0  0  0  0  0  0  0  0
   -5.4606    1.4961    0.1733 C   0  0  0  0  0  0  0  0  0  0  0  0
   -6.0905    0.3116   -0.2048 C   0  0  0  0  0  0  0  0  0  0  0  0
   -5.3782   -0.8946   -0.2118 C   0  0  0  0  0  0  0  0  0  0  0  0
   -6.0391   -2.1804   -0.6389 C   0  0  0  0  0  0  0  0  0  0  0  0
   -5.6047   -3.2611    0.0681 F   0  0  0  0  0  0  0  0  0  0  0  0
   -5.8047   -2.4721   -1.9480 F   0  0  0  0  0  0  0  0  0  0  0  0
   -7.3939   -2.1648   -0.4958 F   0  0  0  0  0  0  0  0  0  0  0  0
   -4.0202   -0.8838    0.1524 C   0  0  0  0  0  0  0  0  0  0  0  0
    0.7654    1.4896    2.1710 H   0  0  0  0  0  0  0  0  0  0  0  0
    0.1461   -0.1604    2.2062 H   0  0  0  0  0  0  0  0  0  0  0  0
    2.0734    2.1931    0.5449 H   0  0  0  0  0  0  0  0  0  0  0  0
    0.9399    2.1497   -0.8039 H   0  0  0  0  0  0  0  0  0  0  0  0
    3.5061    2.1661   -1.3072 H   0  0  0  0  0  0  0  0  0  0  0  0
    2.5136    1.1182   -2.2330 H   0  0  0  0  0  0  0  0  0  0  0  0
    3.5966   -1.5291   -2.1043 H   0  0  0  0  0  0  0  0  0  0  0  0
    3.3037   -1.9545   -0.4120 H   0  0  0  0  0  0  0  0  0  0  0  0
    1.2826   -2.2117   -1.7228 H   0  0  0  0  0  0  0  0  0  0  0  0
    1.2804   -0.5473   -2.2516 H   0  0  0  0  0  0  0  0  0  0  0  0
   -1.5972   -0.7137    0.8379 H   0  0  0  0  0  0  0  0  0  0  0  0
   -3.6622    2.4354    0.8331 H   0  0  0  0  0  0  0  0  0  0  0  0
   -6.0174    2.4305    0.1836 H   0  0  0  0  0  0  0  0  0  0  0  0
   -7.1410    0.3336   -0.4914 H   0  0  0  0  0  0  0  0  0  0  0  0
   -3.4629   -1.8203    0.1366 H   0  0  0  0  0  0  0  0  0  0  0  0
  1  2  2  0
  2  3  1  0
  3  4  1  0
  4  5  1  0
  5  6  1  0
  6  7  1  0
  7  8  1  0
  8  9  2  3
  9 10  1  0
  9 11  1  0
  8 12  1  0
 12 13  1  0
 12 14  1  0
 12 15  1  0
  7 16  1  0
 16 17  1  0
 17 18  1  0
 18 19  2  0
  2 20  1  0
 20 21  1  0
 21 22  1  0
 22 23  2  0
 23 24  1  0
 24 25  2  0
 25 26  1  0
 26 27  1  0
 26 28  1  0
 26 29  1  0
 25 30  1  0
 18  4  1  0
 30 21  2  0
  3 31  1  0
  3 32  1  0
  5 33  1  0
  5 34  1  0
  6 35  1  0
  6 36  1  0
 16 37  1  0
 16 38  1  0
 17 39  1  0
 17 40  1  0
 20 41  1  0
 22 42  1  0
 23 43  1  0
 24 44  1  0
 30 45  1  0
M  END
>  <smiles>
O=C(CN1CCN(C(=C(F)F)C(F)(F)F)CCC1=O)Nc1cccc(C(F)(F)F)c1

$$$$
