mol_db43d23bab5b
     RDKit          3D

 58 60  0  0  0  0  0  0  0  0999 V2000
    6.4370    1.9719    2.1450 C   0  0  0  0  0  0  0  0  0  0  0  0
    6.7772    0.6292    1.5229 C   0  0  0  0  0  0  0  0  0  0  0  0
    5.6128   -0.3670    1.4503 C   0  0  0  0  0  0  0  0  0  0  0  0
    4.4458    0.0697    0.5383 C   0  0  0  0  0  0  0  0  0  0  0  0
    3.3795    0.8992    1.2850 C   0  0  0  0  0  0  0  0  0  0  0  0
    2.1551    0.0695    1.6665 C   0  0  0  0  0  0  0  0  0  0  0  0
    1.4182   -0.5177    0.4295 C   0  0  0  0  0  0  0  0  0  0  0  0
    2.4359   -0.8546   -0.6956 C   0  0  0  0  0  0  0  0  0  0  0  0
    3.8208   -1.1684   -0.1371 C   0  0  0  0  0  0  0  0  0  0  0  0
    0.6218   -1.7533    0.8912 C   0  0  0  0  0  0  0  0  0  0  0  0
   -0.2308   -2.3599   -0.2142 C   0  0  0  0  0  0  0  0  0  0  0  0
   -0.8424   -1.3974   -1.1192 N   0  0  0  0  0  0  0  0  0  0  0  0
   -1.7983   -1.9264   -2.0952 C   0  0  0  0  0  0  0  0  0  0  0  0
   -3.2316   -1.8261   -1.5610 C   0  0  0  0  0  0  0  0  0  0  0  0
   -3.8247   -2.8254   -1.1635 O   0  0  0  0  0  0  0  0  0  0  0  0
   -3.7052   -0.5250   -1.5698 N   0  0  0  0  0  0  0  0  0  0  0  0
   -4.9737   -0.0589   -1.1793 C   0  0  0  0  0  0  0  0  0  0  0  0
   -6.0113   -0.8870   -0.7532 C   0  0  0  0  0  0  0  0  0  0  0  0
   -7.2414   -0.3399   -0.3779 C   0  0  0  0  0  0  0  0  0  0  0  0
   -7.4452    1.0383   -0.4309 C   0  0  0  0  0  0  0  0  0  0  0  0
   -6.4228    1.8833   -0.8712 C   0  0  0  0  0  0  0  0  0  0  0  0
   -6.6223    3.3694   -0.8999 C   0  0  0  0  0  0  0  0  0  0  0  0
   -5.1869    1.3260   -1.2317 C   0  0  0  0  0  0  0  0  0  0  0  0
   -0.5812   -0.0434   -1.1204 C   0  0  0  0  0  0  0  0  0  0  0  0
   -1.1791    0.7266   -1.8775 O   0  0  0  0  0  0  0  0  0  0  0  0
    0.3806    0.4976   -0.0839 C   0  0  0  0  0  0  0  0  0  0  0  0
    5.7415    2.5378    1.5187 H   0  0  0  0  0  0  0  0  0  0  0  0
    5.9971    1.8461    3.1390 H   0  0  0  0  0  0  0  0  0  0  0  0
    7.3445    2.5749    2.2531 H   0  0  0  0  0  0  0  0  0  0  0  0
    7.5810    0.1710    2.1122 H   0  0  0  0  0  0  0  0  0  0  0  0
    7.1837    0.7913    0.5174 H   0  0  0  0  0  0  0  0  0  0  0  0
    5.2454   -0.5867    2.4603 H   0  0  0  0  0  0  0  0  0  0  0  0
    6.0352   -1.3060    1.0688 H   0  0  0  0  0  0  0  0  0  0  0  0
    4.8565    0.7044   -0.2589 H   0  0  0  0  0  0  0  0  0  0  0  0
    3.0606    1.7298    0.6428 H   0  0  0  0  0  0  0  0  0  0  0  0
    3.7905    1.3568    2.1898 H   0  0  0  0  0  0  0  0  0  0  0  0
    1.4713    0.6839    2.2652 H   0  0  0  0  0  0  0  0  0  0  0  0
    2.4861   -0.7403    2.3307 H   0  0  0  0  0  0  0  0  0  0  0  0
    2.5327   -0.0072   -1.3875 H   0  0  0  0  0  0  0  0  0  0  0  0
    2.1006   -1.6979   -1.3070 H   0  0  0  0  0  0  0  0  0  0  0  0
    3.7486   -2.0048    0.5698 H   0  0  0  0  0  0  0  0  0  0  0  0
    4.4774   -1.5035   -0.9494 H   0  0  0  0  0  0  0  0  0  0  0  0
    1.2884   -2.5252    1.2951 H   0  0  0  0  0  0  0  0  0  0  0  0
   -0.0422   -1.4610    1.7167 H   0  0  0  0  0  0  0  0  0  0  0  0
    0.3743   -3.0383   -0.8267 H   0  0  0  0  0  0  0  0  0  0  0  0
   -1.0289   -2.9630    0.2347 H   0  0  0  0  0  0  0  0  0  0  0  0
   -1.5612   -2.9725   -2.3166 H   0  0  0  0  0  0  0  0  0  0  0  0
   -1.7294   -1.3641   -3.0336 H   0  0  0  0  0  0  0  0  0  0  0  0
   -3.0300    0.1856   -1.8590 H   0  0  0  0  0  0  0  0  0  0  0  0
   -5.8957   -1.9646   -0.6995 H   0  0  0  0  0  0  0  0  0  0  0  0
   -8.0408   -0.9951   -0.0413 H   0  0  0  0  0  0  0  0  0  0  0  0
   -8.4067    1.4465   -0.1281 H   0  0  0  0  0  0  0  0  0  0  0  0
   -7.6733    3.6199   -1.0784 H   0  0  0  0  0  0  0  0  0  0  0  0
   -6.0388    3.8257   -1.7065 H   0  0  0  0  0  0  0  0  0  0  0  0
   -6.3118    3.8071    0.0538 H   0  0  0  0  0  0  0  0  0  0  0  0
   -4.3843    1.9859   -1.5555 H   0  0  0  0  0  0  0  0  0  0  0  0
    0.8818    1.3738   -0.5127 H   0  0  0  0  0  0  0  0  0  0  0  0
   -0.2420    0.8591    0.7452 H   0  0  0  0  0  0  0  0  0  0  0  0
  1  2  1  0
  2  3  1  0
  3  4  1  0
  4  5  1  0
  5  6  1  0
  6  7  1  0
  7  8  1  0
  8  9  1  0
  7 10  1  0
 10 11  1  0
 11 12  1  0
 12 13  1  0
 13 14  1  0
 14 15  2  0
 14 16  1  0
 16 17  1  0
 17 18  1  0
 18 19  2  0
 19 20  1  0
 20 21  2  0
 21 22  1  0
 21 23  1  0
 12 24  1  0
 24 25  2  0
 24 26  1  0
  9  4  1  0
 23 17  2  0
 26  7  1  0
  1 27  1  0
  1 28  1  0
  1 29  1  0
  2 30  1  0
  2 31  1  0
  3 32  1  0
  3 33  1  0
  4 34  1  0
  5 35  1  0
  5 36  1  0
  6 37  1  0
  6 38  1  0
  8 39  1  0
  8 40  1  0
  9 41  1  0
  9 42  1  0
 10 43  1  0
 10 44  1  0
 11 45  1  0
 11 46  1  0
 13 47  1  0
 13 48  1  0
 16 49  1  0
 18 50  1  0
 19 51  1  0
 20 52  1  0
 22 53  1  0
 22 54  1  0
 22 55  1  0
 23 56  1  0
 26 57  1  0
 26 58  1  0
M  END
>  <smiles>
CCCC1CCC2(CC1)CCN(CC(=O)Nc1cccc(C)c1)C(=O)C2

$$$$
