mol_ae6eefaeafe7
     RDKit          3D

 63 65  0  0  0  0  0  0  0  0999 V2000
    6.6162    3.4670    1.9994 C   0  0  0  0  0  0  0  0  0  0  0  0
    7.0595    2.4943    0.9119 C   0  0  0  0  0  0  0  0  0  0  0  0
    8.4681    2.2709    1.0457 O   0  0  0  0  0  0  0  0  0  0  0  0
    6.3496    1.1449    0.9904 C   0  0  0  0  0  0  0  0  0  0  0  0
    4.9135    1.1897    0.4981 C   0  0  0  0  0  0  0  0  0  0  0  0
    4.3928    2.2201    0.0887 O   0  0  0  0  0  0  0  0  0  0  0  0
    4.3111   -0.0563    0.5853 N   0  0  0  0  0  0  0  0  0  0  0  0
    2.9899   -0.3995    0.2322 C   0  0  0  0  0  0  0  0  0  0  0  0
    2.0563    0.4980   -0.2805 C   0  0  0  0  0  0  0  0  0  0  0  0
    0.7569    0.0777   -0.6070 C   0  0  0  0  0  0  0  0  0  0  0  0
    0.3495   -1.2512   -0.4250 C   0  0  0  0  0  0  0  0  0  0  0  0
   -1.0238   -1.7311   -0.7491 C   0  0  0  0  0  0  0  0  0  0  0  0
   -2.0714   -0.7597   -1.2566 C   0  0  0  0  0  0  0  0  0  0  0  0
   -2.6821    0.1814   -0.1777 C   0  0  0  0  0  0  0  0  0  0  0  0
   -3.4593   -0.6205    0.8671 C   0  0  0  0  0  0  0  0  0  0  0  0
   -3.5472    1.2470   -0.9009 C   0  0  0  0  0  0  0  0  0  0  0  0
   -4.1657    2.4235   -0.0894 C   0  0  0  0  0  0  0  0  0  0  0  0
   -3.1824    2.9968    0.9415 C   0  0  0  0  0  0  0  0  0  0  0  0
   -4.5190    3.5470   -1.0924 C   0  0  0  0  0  0  0  0  0  0  0  0
   -5.4759    2.0170    0.6082 C   0  0  0  0  0  0  0  0  0  0  0  0
   -1.2697   -3.0458   -0.5936 C   0  0  0  0  0  0  0  0  0  0  0  0
   -0.3205   -3.9236   -0.1184 N   0  0  0  0  0  0  0  0  0  0  0  0
    0.9554   -3.5800    0.2660 C   0  0  0  0  0  0  0  0  0  0  0  0
    1.7723   -4.3742    0.7224 O   0  0  0  0  0  0  0  0  0  0  0  0
    1.3063   -2.1483    0.0825 C   0  0  0  0  0  0  0  0  0  0  0  0
    2.6069   -1.7295    0.4097 C   0  0  0  0  0  0  0  0  0  0  0  0
   -0.8358   -5.2798   -0.0313 C   0  0  0  0  0  0  0  0  0  0  0  0
   -2.0504   -5.2563   -0.9433 C   0  0  0  0  0  0  0  0  0  0  0  0
   -2.5401   -3.8099   -0.8701 C   0  0  0  0  0  0  0  0  0  0  0  0
    5.5556    3.7189    1.9161 H   0  0  0  0  0  0  0  0  0  0  0  0
    6.7970    3.0509    2.9968 H   0  0  0  0  0  0  0  0  0  0  0  0
    7.1973    4.3936    1.9378 H   0  0  0  0  0  0  0  0  0  0  0  0
    6.9053    2.9520   -0.0713 H   0  0  0  0  0  0  0  0  0  0  0  0
    8.6590    2.0746    1.9788 H   0  0  0  0  0  0  0  0  0  0  0  0
    6.8918    0.4127    0.3779 H   0  0  0  0  0  0  0  0  0  0  0  0
    6.3670    0.7628    2.0186 H   0  0  0  0  0  0  0  0  0  0  0  0
    4.8837   -0.8144    0.9382 H   0  0  0  0  0  0  0  0  0  0  0  0
    2.3013    1.5432   -0.4457 H   0  0  0  0  0  0  0  0  0  0  0  0
    0.0821    0.8287   -1.0089 H   0  0  0  0  0  0  0  0  0  0  0  0
   -2.8951   -1.3018   -1.7374 H   0  0  0  0  0  0  0  0  0  0  0  0
   -1.6325   -0.1679   -2.0706 H   0  0  0  0  0  0  0  0  0  0  0  0
   -1.8629    0.6938    0.3380 H   0  0  0  0  0  0  0  0  0  0  0  0
   -4.3751   -1.0452    0.4437 H   0  0  0  0  0  0  0  0  0  0  0  0
   -3.7245    0.0012    1.7246 H   0  0  0  0  0  0  0  0  0  0  0  0
   -2.8614   -1.4412    1.2742 H   0  0  0  0  0  0  0  0  0  0  0  0
   -4.3486    0.7384   -1.4547 H   0  0  0  0  0  0  0  0  0  0  0  0
   -2.9012    1.6921   -1.6719 H   0  0  0  0  0  0  0  0  0  0  0  0
   -3.5909    3.8951    1.4188 H   0  0  0  0  0  0  0  0  0  0  0  0
   -2.2339    3.2752    0.4689 H   0  0  0  0  0  0  0  0  0  0  0  0
   -2.9650    2.2804    1.7397 H   0  0  0  0  0  0  0  0  0  0  0  0
   -3.6241    3.9189   -1.6042 H   0  0  0  0  0  0  0  0  0  0  0  0
   -4.9864    4.4004   -0.5877 H   0  0  0  0  0  0  0  0  0  0  0  0
   -5.2177    3.1882   -1.8568 H   0  0  0  0  0  0  0  0  0  0  0  0
   -6.1731    1.5531   -0.0985 H   0  0  0  0  0  0  0  0  0  0  0  0
   -5.9783    2.8923    1.0373 H   0  0  0  0  0  0  0  0  0  0  0  0
   -5.3175    1.3175    1.4301 H   0  0  0  0  0  0  0  0  0  0  0  0
    3.3107   -2.4615    0.7996 H   0  0  0  0  0  0  0  0  0  0  0  0
   -0.0812   -6.0092   -0.3412 H   0  0  0  0  0  0  0  0  0  0  0  0
   -1.1100   -5.4722    1.0121 H   0  0  0  0  0  0  0  0  0  0  0  0
   -1.7467   -5.4889   -1.9721 H   0  0  0  0  0  0  0  0  0  0  0  0
   -2.8150   -5.9805   -0.6479 H   0  0  0  0  0  0  0  0  0  0  0  0
   -3.2407   -3.6881   -0.0370 H   0  0  0  0  0  0  0  0  0  0  0  0
   -3.0301   -3.5222   -1.8037 H   0  0  0  0  0  0  0  0  0  0  0  0
  1  2  1  0
  2  3  1  0
  2  4  1  0
  4  5  1  0
  5  6  2  0
  5  7  1  0
  7  8  1  0
  8  9  1  0
  9 10  2  0
 10 11  1  0
 11 12  1  0
 12 13  1  0
 13 14  1  0
 14 15  1  0
 14 16  1  0
 16 17  1  0
 17 18  1  0
 17 19  1  0
 17 20  1  0
 12 21  2  0
 21 22  1  0
 22 23  1  0
 23 24  2  0
 23 25  1  0
 25 26  1  0
 22 27  1  0
 27 28  1  0
 28 29  1  0
 26  8  2  0
 25 11  2  0
 29 21  1  0
  1 30  1  0
  1 31  1  0
  1 32  1  0
  2 33  1  0
  3 34  1  0
  4 35  1  0
  4 36  1  0
  7 37  1  0
  9 38  1  0
 10 39  1  0
 13 40  1  0
 13 41  1  0
 14 42  1  0
 15 43  1  0
 15 44  1  0
 15 45  1  0
 16 46  1  0
 16 47  1  0
 18 48  1  0
 18 49  1  0
 18 50  1  0
 19 51  1  0
 19 52  1  0
 19 53  1  0
 20 54  1  0
 20 55  1  0
 20 56  1  0
 26 57  1  0
 27 58  1  0
 27 59  1  0
 28 60  1  0
 28 61  1  0
 29 62  1  0
 29 63  1  0
M  END
>  <smiles>
CC(O)CC(=O)Nc1ccc2c(CC(C)CC(C)(C)C)c3n(c(=O)c2c1)CCC3

$$$$
