mol_90f1169a596c
     RDKit          3D

 57 59  0  0  0  0  0  0  0  0999 V2000
   -3.8871   -5.0403    2.1190 C   0  0  0  0  0  0  0  0  0  0  0  0
   -2.8994   -4.1503    1.5935 O   0  0  0  0  0  0  0  0  0  0  0  0
   -3.0059   -2.8729    2.0527 C   0  0  0  0  0  0  0  0  0  0  0  0
   -3.8510   -2.5012    2.8494 O   0  0  0  0  0  0  0  0  0  0  0  0
   -2.0147   -2.1352    1.4749 N   0  0  0  0  0  0  0  0  0  0  0  0
   -1.8042   -0.7905    1.6642 C   0  0  0  0  0  0  0  0  0  0  0  0
   -2.4933   -0.0249    2.3220 O   0  0  0  0  0  0  0  0  0  0  0  0
   -0.6127   -0.3003    0.9193 C   0  0  0  0  0  0  0  0  0  0  0  0
   -0.5415    0.7679    0.0945 C   0  0  0  0  0  0  0  0  0  0  0  0
   -1.6201    1.7391   -0.3396 C   0  0  0  0  0  0  0  0  0  0  0  0
   -1.9363    2.7985    0.7312 C   0  0  0  0  0  0  0  0  0  0  0  0
   -3.0753    3.6925    0.3277 C   0  0  0  0  0  0  0  0  0  0  0  0
   -3.9597    3.4162   -0.6456 C   0  0  0  0  0  0  0  0  0  0  0  0
   -5.0642    4.3367   -1.0573 C   0  0  0  0  0  0  0  0  0  0  0  0
   -3.8729    2.1041   -1.3585 C   0  0  0  0  0  0  0  0  0  0  0  0
   -4.6081    1.8636   -2.3147 O   0  0  0  0  0  0  0  0  0  0  0  0
   -2.9057    1.0670   -0.8295 C   0  0  0  0  0  0  0  0  0  0  0  0
    0.8997    0.8910   -0.4419 C   0  0  0  0  0  0  0  0  0  0  0  0
    1.5304    2.2354   -0.0520 C   0  0  0  0  0  0  0  0  0  0  0  0
    0.9443    0.6981   -1.9665 C   0  0  0  0  0  0  0  0  0  0  0  0
    1.5727   -0.2681    0.2785 C   0  0  0  0  0  0  0  0  0  0  0  0
    2.9868   -0.6089    0.1881 C   0  0  0  0  0  0  0  0  0  0  0  0
    3.8794   -0.1681    1.1691 C   0  0  0  0  0  0  0  0  0  0  0  0
    5.2295   -0.5106    1.0927 C   0  0  0  0  0  0  0  0  0  0  0  0
    5.6964   -1.3033    0.0407 C   0  0  0  0  0  0  0  0  0  0  0  0
    4.8123   -1.7596   -0.9371 C   0  0  0  0  0  0  0  0  0  0  0  0
    5.1347   -2.5441   -2.0105 O   0  0  0  0  0  0  0  0  0  0  0  0
    6.5008   -2.9141   -2.1495 C   0  0  0  0  0  0  0  0  0  0  0  0
    3.4599   -1.4126   -0.8548 C   0  0  0  0  0  0  0  0  0  0  0  0
    0.6866   -0.9234    1.0413 C   0  0  0  0  0  0  0  0  0  0  0  0
   -4.8915   -4.7079    1.8384 H   0  0  0  0  0  0  0  0  0  0  0  0
   -3.7920   -5.1195    3.2065 H   0  0  0  0  0  0  0  0  0  0  0  0
   -3.7162   -6.0290    1.6841 H   0  0  0  0  0  0  0  0  0  0  0  0
   -1.4157   -2.6532    0.8531 H   0  0  0  0  0  0  0  0  0  0  0  0
   -1.2286    2.2920   -1.2054 H   0  0  0  0  0  0  0  0  0  0  0  0
   -2.1798    2.3458    1.6969 H   0  0  0  0  0  0  0  0  0  0  0  0
   -1.0496    3.4231    0.8940 H   0  0  0  0  0  0  0  0  0  0  0  0
   -3.1606    4.6276    0.8777 H   0  0  0  0  0  0  0  0  0  0  0  0
   -6.0372    3.8520   -0.9263 H   0  0  0  0  0  0  0  0  0  0  0  0
   -5.0696    5.2567   -0.4633 H   0  0  0  0  0  0  0  0  0  0  0  0
   -4.9543    4.6214   -2.1088 H   0  0  0  0  0  0  0  0  0  0  0  0
   -3.4256    0.5116   -0.0442 H   0  0  0  0  0  0  0  0  0  0  0  0
   -2.6718    0.3705   -1.6436 H   0  0  0  0  0  0  0  0  0  0  0  0
    1.0115    3.0739   -0.5297 H   0  0  0  0  0  0  0  0  0  0  0  0
    1.4975    2.3999    1.0318 H   0  0  0  0  0  0  0  0  0  0  0  0
    2.5800    2.2891   -0.3635 H   0  0  0  0  0  0  0  0  0  0  0  0
    0.4944   -0.2557   -2.2677 H   0  0  0  0  0  0  0  0  0  0  0  0
    1.9744    0.7128   -2.3403 H   0  0  0  0  0  0  0  0  0  0  0  0
    0.4072    1.4947   -2.4924 H   0  0  0  0  0  0  0  0  0  0  0  0
    3.5308    0.4466    1.9961 H   0  0  0  0  0  0  0  0  0  0  0  0
    5.9205   -0.1606    1.8558 H   0  0  0  0  0  0  0  0  0  0  0  0
    6.7530   -1.5483    0.0171 H   0  0  0  0  0  0  0  0  0  0  0  0
    6.8337   -3.5201   -1.3003 H   0  0  0  0  0  0  0  0  0  0  0  0
    6.5908   -3.5273   -3.0513 H   0  0  0  0  0  0  0  0  0  0  0  0
    7.1373   -2.0329   -2.2811 H   0  0  0  0  0  0  0  0  0  0  0  0
    2.7765   -1.7797   -1.6171 H   0  0  0  0  0  0  0  0  0  0  0  0
    0.9036   -1.7656    1.6826 H   0  0  0  0  0  0  0  0  0  0  0  0
  1  2  1  0
  2  3  1  0
  3  4  2  0
  3  5  1  0
  5  6  1  0
  6  7  2  0
  6  8  1  0
  8  9  2  0
  9 10  1  0
 10 11  1  0
 11 12  1  0
 12 13  2  0
 13 14  1  0
 13 15  1  0
 15 16  2  0
 15 17  1  0
  9 18  1  0
 18 19  1  0
 18 20  1  0
 18 21  1  0
 21 22  1  0
 22 23  2  0
 23 24  1  0
 24 25  2  0
 25 26  1  0
 26 27  1  0
 27 28  1  0
 26 29  2  0
 21 30  2  0
 30  8  1  0
 17 10  1  0
 29 22  1  0
  1 31  1  0
  1 32  1  0
  1 33  1  0
  5 34  1  0
 10 35  1  0
 11 36  1  0
 11 37  1  0
 12 38  1  0
 14 39  1  0
 14 40  1  0
 14 41  1  0
 17 42  1  0
 17 43  1  0
 19 44  1  0
 19 45  1  0
 19 46  1  0
 20 47  1  0
 20 48  1  0
 20 49  1  0
 23 50  1  0
 24 51  1  0
 25 52  1  0
 28 53  1  0
 28 54  1  0
 28 55  1  0
 29 56  1  0
 30 57  1  0
M  END
>  <smiles>
COC(=O)NC(=O)C1=C(C2CC=C(C)C(=O)C2)C(C)(C)C(c2cccc(OC)c2)=C1

$$$$
