mol_5cc74858e368
     RDKit          3D

 52 55  0  0  0  0  0  0  0  0999 V2000
    0.8816   -2.3211   -1.1831 O   0  0  0  0  0  0  0  0  0  0  0  0
   -0.2992   -2.3075   -1.5187 C   0  0  0  0  0  0  0  0  0  0  0  0
   -0.7619   -3.2482   -2.5659 C   0  0  0  0  0  0  0  0  0  0  0  0
   -2.0109   -3.2220   -3.0441 C   0  0  0  0  0  0  0  0  0  0  0  0
   -3.0382   -2.2336   -2.5924 C   0  0  0  0  0  0  0  0  0  0  0  0
   -2.4307   -0.9828   -1.9292 C   0  0  0  0  0  0  0  0  0  0  0  0
   -3.5519   -0.2112   -1.2225 C   0  0  0  0  0  0  0  0  0  0  0  0
   -2.9829    0.9240   -0.3745 C   0  0  0  0  0  0  0  0  0  0  0  0
   -4.1228    1.6153    0.3837 C   0  0  0  0  0  0  0  0  0  0  0  0
   -3.6236    2.7957    1.2104 C   0  0  0  0  0  0  0  0  0  0  0  0
   -2.1643    2.6379    1.6172 C   0  0  0  0  0  0  0  0  0  0  0  0
   -1.7751    1.1750    1.8077 C   0  0  0  0  0  0  0  0  0  0  0  0
   -1.9825    0.3851    0.5729 N   0  0  0  0  0  0  0  0  0  0  0  0
   -1.1574   -0.7177    0.2215 C   0  0  0  0  0  0  0  0  0  0  0  0
   -0.1419   -1.2289    1.2509 C   0  0  0  0  0  0  0  0  0  0  0  0
    1.1569   -0.6756    0.9546 N   0  0  0  0  0  0  0  0  0  0  0  0
    1.9291   -0.0082    1.8686 C   0  0  0  0  0  0  0  0  0  0  0  0
    1.5600    0.2667    3.0054 O   0  0  0  0  0  0  0  0  0  0  0  0
    3.2849    0.4098    1.4083 C   0  0  0  0  0  0  0  0  0  0  0  0
    3.8794    1.5166    2.0272 C   0  0  0  0  0  0  0  0  0  0  0  0
    5.1452    1.9506    1.6331 C   0  0  0  0  0  0  0  0  0  0  0  0
    5.8313    1.2743    0.6242 C   0  0  0  0  0  0  0  0  0  0  0  0
    5.2649    0.1480    0.0072 C   0  0  0  0  0  0  0  0  0  0  0  0
    6.0003   -0.5867   -1.0870 C   0  0  0  0  0  0  0  0  0  0  0  0
    5.8829   -1.9398   -0.9883 F   0  0  0  0  0  0  0  0  0  0  0  0
    5.5427   -0.2592   -2.3267 F   0  0  0  0  0  0  0  0  0  0  0  0
    7.3387   -0.3313   -1.1040 F   0  0  0  0  0  0  0  0  0  0  0  0
    3.9842   -0.2773    0.4055 C   0  0  0  0  0  0  0  0  0  0  0  0
   -1.3007   -1.3249   -0.9852 C   0  0  0  0  0  0  0  0  0  0  0  0
   -0.0301   -3.9699   -2.9113 H   0  0  0  0  0  0  0  0  0  0  0  0
   -2.3119   -3.9537   -3.7896 H   0  0  0  0  0  0  0  0  0  0  0  0
   -3.7250   -2.7500   -1.9098 H   0  0  0  0  0  0  0  0  0  0  0  0
   -3.6319   -1.9185   -3.4594 H   0  0  0  0  0  0  0  0  0  0  0  0
   -2.0106   -0.3420   -2.7183 H   0  0  0  0  0  0  0  0  0  0  0  0
   -4.2528    0.1873   -1.9668 H   0  0  0  0  0  0  0  0  0  0  0  0
   -4.1270   -0.8934   -0.5805 H   0  0  0  0  0  0  0  0  0  0  0  0
   -2.4875    1.6495   -1.0337 H   0  0  0  0  0  0  0  0  0  0  0  0
   -4.6049    0.8942    1.0577 H   0  0  0  0  0  0  0  0  0  0  0  0
   -4.8997    1.9602   -0.3091 H   0  0  0  0  0  0  0  0  0  0  0  0
   -3.7363    3.7273    0.6431 H   0  0  0  0  0  0  0  0  0  0  0  0
   -4.2546    2.8996    2.1013 H   0  0  0  0  0  0  0  0  0  0  0  0
   -1.5259    3.0800    0.8411 H   0  0  0  0  0  0  0  0  0  0  0  0
   -1.9737    3.2042    2.5360 H   0  0  0  0  0  0  0  0  0  0  0  0
   -2.3565    0.7259    2.6213 H   0  0  0  0  0  0  0  0  0  0  0  0
   -0.7242    1.1710    2.1042 H   0  0  0  0  0  0  0  0  0  0  0  0
   -0.4473   -1.0148    2.2793 H   0  0  0  0  0  0  0  0  0  0  0  0
   -0.0535   -2.3203    1.1987 H   0  0  0  0  0  0  0  0  0  0  0  0
    1.4917   -0.8827    0.0208 H   0  0  0  0  0  0  0  0  0  0  0  0
    3.3512    2.0466    2.8180 H   0  0  0  0  0  0  0  0  0  0  0  0
    5.5954    2.8152    2.1153 H   0  0  0  0  0  0  0  0  0  0  0  0
    6.8187    1.6254    0.3259 H   0  0  0  0  0  0  0  0  0  0  0  0
    3.5579   -1.1642   -0.0606 H   0  0  0  0  0  0  0  0  0  0  0  0
  1  2  2  0
  2  3  1  0
  3  4  2  0
  4  5  1  0
  5  6  1  0
  6  7  1  0
  7  8  1  0
  8  9  1  0
  9 10  1  0
 10 11  1  0
 11 12  1  0
 12 13  1  0
 13 14  1  0
 14 15  1  0
 15 16  1  0
 16 17  1  0
 17 18  2  0
 17 19  1  0
 19 20  1  0
 20 21  2  0
 21 22  1  0
 22 23  2  0
 23 24  1  0
 24 25  1  0
 24 26  1  0
 24 27  1  0
 23 28  1  0
 14 29  2  0
 29  2  1  0
 29  6  1  0
 13  8  1  0
 28 19  2  0
  3 30  1  0
  4 31  1  0
  5 32  1  0
  5 33  1  0
  6 34  1  0
  7 35  1  0
  7 36  1  0
  8 37  1  0
  9 38  1  0
  9 39  1  0
 10 40  1  0
 10 41  1  0
 11 42  1  0
 11 43  1  0
 12 44  1  0
 12 45  1  0
 15 46  1  0
 15 47  1  0
 16 48  1  0
 20 49  1  0
 21 50  1  0
 22 51  1  0
 28 52  1  0
M  END
>  <smiles>
O=C1C=CCC2CC3CCCCN3C(CNC(=O)c3cccc(C(F)(F)F)c3)=C12

$$$$
