mol_9114de106740
     RDKit          3D

 51 53  0  0  0  0  0  0  0  0999 V2000
   -4.2144   -1.6894    0.2525 C   0  0  0  0  0  0  0  0  0  0  0  0
   -3.4220   -0.4353    0.7004 C   0  0  0  0  0  0  0  0  0  0  0  0
   -3.2018   -0.5884    2.2204 C   0  0  0  0  0  0  0  0  0  0  0  0
   -4.2828    0.8260    0.4613 C   0  0  0  0  0  0  0  0  0  0  0  0
   -4.6207    1.0794   -1.0098 C   0  0  0  0  0  0  0  0  0  0  0  0
   -3.4906    0.7257   -1.9754 C   0  0  0  0  0  0  0  0  0  0  0  0
   -2.1339    0.6871   -1.2776 C   0  0  0  0  0  0  0  0  0  0  0  0
   -0.9944    0.4263   -2.2790 C   0  0  0  0  0  0  0  0  0  0  0  0
    0.2782   -0.1078   -1.6145 C   0  0  0  0  0  0  0  0  0  0  0  0
    0.4073    0.3573   -0.1633 C   0  0  0  0  0  0  0  0  0  0  0  0
    1.6508   -0.1218    0.4204 N   0  0  0  0  0  0  0  0  0  0  0  0
    2.2781    0.5377    1.4566 C   0  0  0  0  0  0  0  0  0  0  0  0
    1.8511    1.5731    1.9596 O   0  0  0  0  0  0  0  0  0  0  0  0
    3.5448   -0.1396    1.9500 C   0  0  0  0  0  0  0  0  0  0  0  0
    4.6673   -0.1071    0.9404 C   0  0  0  0  0  0  0  0  0  0  0  0
    5.1804    1.1187    0.4862 C   0  0  0  0  0  0  0  0  0  0  0  0
    6.2198    1.1544   -0.4473 C   0  0  0  0  0  0  0  0  0  0  0  0
    6.7601   -0.0345   -0.9326 C   0  0  0  0  0  0  0  0  0  0  0  0
    6.2586   -1.2479   -0.4782 C   0  0  0  0  0  0  0  0  0  0  0  0
    6.7783   -2.3919   -0.9423 F   0  0  0  0  0  0  0  0  0  0  0  0
    5.2235   -1.2965    0.4513 C   0  0  0  0  0  0  0  0  0  0  0  0
   -0.8016   -0.0749    0.6963 C   0  0  0  0  0  0  0  0  0  0  0  0
   -2.0846   -0.3470   -0.1261 C   0  0  0  0  0  0  0  0  0  0  0  0
   -5.1885   -1.7406    0.7526 H   0  0  0  0  0  0  0  0  0  0  0  0
   -3.6669   -2.6058    0.5027 H   0  0  0  0  0  0  0  0  0  0  0  0
   -4.3980   -1.7072   -0.8252 H   0  0  0  0  0  0  0  0  0  0  0  0
   -2.7405    0.3021    2.6591 H   0  0  0  0  0  0  0  0  0  0  0  0
   -2.5711   -1.4544    2.4487 H   0  0  0  0  0  0  0  0  0  0  0  0
   -4.1556   -0.7358    2.7415 H   0  0  0  0  0  0  0  0  0  0  0  0
   -5.2184    0.7712    1.0327 H   0  0  0  0  0  0  0  0  0  0  0  0
   -3.7463    1.7016    0.8520 H   0  0  0  0  0  0  0  0  0  0  0  0
   -5.5190    0.5165   -1.2912 H   0  0  0  0  0  0  0  0  0  0  0  0
   -4.8837    2.1381   -1.1265 H   0  0  0  0  0  0  0  0  0  0  0  0
   -3.6956   -0.2475   -2.4381 H   0  0  0  0  0  0  0  0  0  0  0  0
   -3.4786    1.4521   -2.7972 H   0  0  0  0  0  0  0  0  0  0  0  0
   -1.9649    1.6863   -0.8485 H   0  0  0  0  0  0  0  0  0  0  0  0
   -1.3084   -0.2860   -3.0521 H   0  0  0  0  0  0  0  0  0  0  0  0
   -0.7672    1.3639   -2.8018 H   0  0  0  0  0  0  0  0  0  0  0  0
    1.1534    0.2008   -2.1995 H   0  0  0  0  0  0  0  0  0  0  0  0
    0.2699   -1.2056   -1.6464 H   0  0  0  0  0  0  0  0  0  0  0  0
    0.4517    1.4549   -0.1638 H   0  0  0  0  0  0  0  0  0  0  0  0
    2.0625   -0.9743    0.0622 H   0  0  0  0  0  0  0  0  0  0  0  0
    3.2937   -1.1726    2.2201 H   0  0  0  0  0  0  0  0  0  0  0  0
    3.8758    0.3551    2.8710 H   0  0  0  0  0  0  0  0  0  0  0  0
    4.7692    2.0571    0.8578 H   0  0  0  0  0  0  0  0  0  0  0  0
    6.6062    2.1100   -0.7930 H   0  0  0  0  0  0  0  0  0  0  0  0
    7.5678   -0.0229   -1.6571 H   0  0  0  0  0  0  0  0  0  0  0  0
    4.8675   -2.2668    0.7843 H   0  0  0  0  0  0  0  0  0  0  0  0
   -0.9757    0.7208    1.4304 H   0  0  0  0  0  0  0  0  0  0  0  0
   -0.5542   -0.9788    1.2677 H   0  0  0  0  0  0  0  0  0  0  0  0
   -1.9365   -1.3358   -0.5861 H   0  0  0  0  0  0  0  0  0  0  0  0
  1  2  1  0
  2  3  1  0
  2  4  1  0
  4  5  1  0
  5  6  1  0
  6  7  1  0
  7  8  1  0
  8  9  1  0
  9 10  1  0
 10 11  1  0
 11 12  1  0
 12 13  2  0
 12 14  1  0
 14 15  1  0
 15 16  2  0
 16 17  1  0
 17 18  2  0
 18 19  1  0
 19 20  1  0
 19 21  2  0
 10 22  1  0
 22 23  1  0
 23  2  1  0
 23  7  1  0
 21 15  1  0
  1 24  1  0
  1 25  1  0
  1 26  1  0
  3 27  1  0
  3 28  1  0
  3 29  1  0
  4 30  1  0
  4 31  1  0
  5 32  1  0
  5 33  1  0
  6 34  1  0
  6 35  1  0
  7 36  1  0
  8 37  1  0
  8 38  1  0
  9 39  1  0
  9 40  1  0
 10 41  1  0
 11 42  1  0
 14 43  1  0
 14 44  1  0
 16 45  1  0
 17 46  1  0
 18 47  1  0
 21 48  1  0
 22 49  1  0
 22 50  1  0
 23 51  1  0
M  END
>  <smiles>
CC1(C)CCCC2CCC(NC(=O)Cc3cccc(F)c3)CC21

$$$$
