mol_d8c59bdbe6c9
     RDKit          3D

 56 59  0  0  0  0  0  0  0  0999 V2000
    4.7437   -0.1502   -2.2922 C   0  0  0  0  0  0  0  0  0  0  0  0
    4.0095   -0.6031   -1.0261 C   0  0  0  0  0  0  0  0  0  0  0  0
    4.6058   -1.9267   -0.5431 C   0  0  0  0  0  0  0  0  0  0  0  0
    4.0956    0.4992    0.0477 C   0  0  0  0  0  0  0  0  0  0  0  0
    3.1903    0.2971    1.2749 C   0  0  0  0  0  0  0  0  0  0  0  0
    1.7603    0.4338    0.9853 N   0  0  0  0  0  0  0  0  0  0  0  0
    1.0197   -0.7369    0.8060 C   0  0  0  0  0  0  0  0  0  0  0  0
    1.5045   -1.8654    0.8849 O   0  0  0  0  0  0  0  0  0  0  0  0
   -0.4410   -0.6008    0.5174 C   0  0  0  0  0  0  0  0  0  0  0  0
   -1.0301    0.6013    0.5197 C   0  0  0  0  0  0  0  0  0  0  0  0
   -0.2071    1.8045    0.5698 C   0  0  0  0  0  0  0  0  0  0  0  0
   -0.8089    3.0367    0.2770 C   0  0  0  0  0  0  0  0  0  0  0  0
   -0.0819    4.2179    0.3772 C   0  0  0  0  0  0  0  0  0  0  0  0
    1.2627    4.1616    0.7322 C   0  0  0  0  0  0  0  0  0  0  0  0
    1.8813    2.9253    0.9585 C   0  0  0  0  0  0  0  0  0  0  0  0
    1.1604    1.7263    0.8532 C   0  0  0  0  0  0  0  0  0  0  0  0
   -2.1320    3.1435   -0.1115 O   0  0  0  0  0  0  0  0  0  0  0  0
   -2.6741    1.8946   -0.6642 N   0  0  0  0  0  0  0  0  0  0  0  0
   -2.5100    0.8554    0.3637 C   0  0  0  0  0  0  0  0  0  0  0  0
   -3.3622   -0.4610    0.1506 C   0  0  0  0  0  0  0  0  0  0  0  0
   -4.6903   -0.1317   -0.5762 C   0  0  0  0  0  0  0  0  0  0  0  0
   -3.7880   -0.9463    1.5731 C   0  0  0  0  0  0  0  0  0  0  0  0
   -2.5260   -1.5925   -0.5907 C   0  0  0  0  0  0  0  0  0  0  0  0
   -2.1770   -1.2039   -2.0515 C   0  0  0  0  0  0  0  0  0  0  0  0
   -3.2814   -2.9415   -0.6787 C   0  0  0  0  0  0  0  0  0  0  0  0
   -1.1988   -1.8568    0.1903 C   0  0  0  0  0  0  0  0  0  0  0  0
    4.6769   -0.9131   -3.0751 H   0  0  0  0  0  0  0  0  0  0  0  0
    5.8039    0.0387   -2.0917 H   0  0  0  0  0  0  0  0  0  0  0  0
    4.3037    0.7711   -2.6886 H   0  0  0  0  0  0  0  0  0  0  0  0
    2.9608   -0.7680   -1.2978 H   0  0  0  0  0  0  0  0  0  0  0  0
    4.5533   -2.6844   -1.3324 H   0  0  0  0  0  0  0  0  0  0  0  0
    4.0694   -2.3225    0.3229 H   0  0  0  0  0  0  0  0  0  0  0  0
    5.6578   -1.8078   -0.2617 H   0  0  0  0  0  0  0  0  0  0  0  0
    3.8638    1.4629   -0.4199 H   0  0  0  0  0  0  0  0  0  0  0  0
    5.1334    0.5723    0.3984 H   0  0  0  0  0  0  0  0  0  0  0  0
    3.3852   -0.6850    1.7187 H   0  0  0  0  0  0  0  0  0  0  0  0
    3.4576    1.0126    2.0613 H   0  0  0  0  0  0  0  0  0  0  0  0
   -0.5567    5.1736    0.1730 H   0  0  0  0  0  0  0  0  0  0  0  0
    1.8410    5.0793    0.8134 H   0  0  0  0  0  0  0  0  0  0  0  0
    2.9389    2.9377    1.2020 H   0  0  0  0  0  0  0  0  0  0  0  0
   -2.0818    1.7266   -1.4760 H   0  0  0  0  0  0  0  0  0  0  0  0
   -2.8682    1.3042    1.3028 H   0  0  0  0  0  0  0  0  0  0  0  0
   -5.2359    0.6618   -0.0511 H   0  0  0  0  0  0  0  0  0  0  0  0
   -4.5316    0.2097   -1.6031 H   0  0  0  0  0  0  0  0  0  0  0  0
   -5.3560   -0.9999   -0.6165 H   0  0  0  0  0  0  0  0  0  0  0  0
   -4.4310   -1.8306    1.5300 H   0  0  0  0  0  0  0  0  0  0  0  0
   -4.3678   -0.1721    2.0913 H   0  0  0  0  0  0  0  0  0  0  0  0
   -2.9298   -1.1781    2.2103 H   0  0  0  0  0  0  0  0  0  0  0  0
   -1.5757   -1.9879   -2.5281 H   0  0  0  0  0  0  0  0  0  0  0  0
   -3.0761   -1.0833   -2.6638 H   0  0  0  0  0  0  0  0  0  0  0  0
   -1.5953   -0.2825   -2.1215 H   0  0  0  0  0  0  0  0  0  0  0  0
   -3.4928   -3.3634    0.3082 H   0  0  0  0  0  0  0  0  0  0  0  0
   -2.6816   -3.6884   -1.2133 H   0  0  0  0  0  0  0  0  0  0  0  0
   -4.2273   -2.8444   -1.2201 H   0  0  0  0  0  0  0  0  0  0  0  0
   -1.3953   -2.4009    1.1224 H   0  0  0  0  0  0  0  0  0  0  0  0
   -0.5679   -2.5186   -0.4184 H   0  0  0  0  0  0  0  0  0  0  0  0
  1  2  1  0
  2  3  1  0
  2  4  1  0
  4  5  1  0
  5  6  1  0
  6  7  1  0
  7  8  2  0
  7  9  1  0
  9 10  2  0
 10 11  1  0
 11 12  2  0
 12 13  1  0
 13 14  2  0
 14 15  1  0
 15 16  2  0
 12 17  1  0
 17 18  1  0
 18 19  1  0
 19 20  1  0
 20 21  1  0
 20 22  1  0
 20 23  1  0
 23 24  1  0
 23 25  1  0
 23 26  1  0
 16  6  1  0
 26  9  1  0
 19 10  1  0
 16 11  1  0
  1 27  1  0
  1 28  1  0
  1 29  1  0
  2 30  1  0
  3 31  1  0
  3 32  1  0
  3 33  1  0
  4 34  1  0
  4 35  1  0
  5 36  1  0
  5 37  1  0
 13 38  1  0
 14 39  1  0
 15 40  1  0
 18 41  1  0
 19 42  1  0
 21 43  1  0
 21 44  1  0
 21 45  1  0
 22 46  1  0
 22 47  1  0
 22 48  1  0
 24 49  1  0
 24 50  1  0
 24 51  1  0
 25 52  1  0
 25 53  1  0
 25 54  1  0
 26 55  1  0
 26 56  1  0
M  END
>  <smiles>
CC(C)CCn1c(=O)c2c3c4c(cccc41)ONC3C(C)(C)C(C)(C)C2

$$$$
