mol_539672341138
     RDKit          3D

 70 72  0  0  0  0  0  0  0  0999 V2000
   -4.2859    3.9703   -2.0025 C   0  0  0  0  0  0  0  0  0  0  0  0
   -3.6378    3.2532   -0.8270 C   0  0  0  0  0  0  0  0  0  0  0  0
   -4.3238    1.9126   -0.5492 C   0  0  0  0  0  0  0  0  0  0  0  0
   -3.7308    1.1000    0.6227 C   0  0  0  0  0  0  0  0  0  0  0  0
   -3.9010    1.8411    1.9541 C   0  0  0  0  0  0  0  0  0  0  0  0
   -2.2517    0.7276    0.3618 C   0  0  0  0  0  0  0  0  0  0  0  0
   -1.7375   -0.4503    1.2183 C   0  0  0  0  0  0  0  0  0  0  0  0
   -0.2087   -0.3779    1.3430 C   0  0  0  0  0  0  0  0  0  0  0  0
    0.3825   -1.5459    2.1531 C   0  0  0  0  0  0  0  0  0  0  0  0
    1.4392   -2.2824    1.3225 C   0  0  0  0  0  0  0  0  0  0  0  0
    1.1798   -3.3790    0.8234 O   0  0  0  0  0  0  0  0  0  0  0  0
    2.6790   -1.6739    1.1237 N   0  0  0  0  0  0  0  0  0  0  0  0
    3.6524   -2.3790    0.2832 C   0  0  0  0  0  0  0  0  0  0  0  0
    3.5411   -1.9440   -1.1760 C   0  0  0  0  0  0  0  0  0  0  0  0
    4.2580   -0.6391   -1.5423 C   0  0  0  0  0  0  0  0  0  0  0  0
    4.4664    0.3861   -0.4242 C   0  0  0  0  0  0  0  0  0  0  0  0
    4.8859    1.7647   -0.9718 C   0  0  0  0  0  0  0  0  0  0  0  0
    4.0146    2.7935   -0.2566 C   0  0  0  0  0  0  0  0  0  0  0  0
    3.4813    2.0698    0.9672 C   0  0  0  0  0  0  0  0  0  0  0  0
    3.2309    0.6543    0.4486 C   0  0  0  0  0  0  0  0  0  0  0  0
    3.0732   -0.3470    1.5958 C   0  0  0  0  0  0  0  0  0  0  0  0
   -0.6850   -2.5237    2.6673 C   0  0  0  0  0  0  0  0  0  0  0  0
   -1.7002   -2.8817    1.6016 C   0  0  0  0  0  0  0  0  0  0  0  0
   -2.1522   -4.0194    1.4991 O   0  0  0  0  0  0  0  0  0  0  0  0
   -2.1081   -1.8113    0.8035 N   0  0  0  0  0  0  0  0  0  0  0  0
   -2.9429   -2.1163   -0.3613 C   0  0  0  0  0  0  0  0  0  0  0  0
   -2.1787   -2.8102   -1.4954 C   0  0  0  0  0  0  0  0  0  0  0  0
   -1.1553   -1.9147   -2.1743 C   0  0  0  0  0  0  0  0  0  0  0  0
   -5.3427    4.1745   -1.8033 H   0  0  0  0  0  0  0  0  0  0  0  0
   -3.7843    4.9256   -2.1866 H   0  0  0  0  0  0  0  0  0  0  0  0
   -4.2172    3.3694   -2.9149 H   0  0  0  0  0  0  0  0  0  0  0  0
   -3.6961    3.9015    0.0535 H   0  0  0  0  0  0  0  0  0  0  0  0
   -2.5770    3.1004   -1.0521 H   0  0  0  0  0  0  0  0  0  0  0  0
   -4.2828    1.2962   -1.4568 H   0  0  0  0  0  0  0  0  0  0  0  0
   -5.3887    2.0905   -0.3504 H   0  0  0  0  0  0  0  0  0  0  0  0
   -4.3256    0.1817    0.6961 H   0  0  0  0  0  0  0  0  0  0  0  0
   -3.6608    1.1920    2.8015 H   0  0  0  0  0  0  0  0  0  0  0  0
   -4.9367    2.1729    2.0837 H   0  0  0  0  0  0  0  0  0  0  0  0
   -3.2521    2.7204    2.0163 H   0  0  0  0  0  0  0  0  0  0  0  0
   -1.6404    1.6145    0.5762 H   0  0  0  0  0  0  0  0  0  0  0  0
   -2.0914    0.5104   -0.6999 H   0  0  0  0  0  0  0  0  0  0  0  0
   -2.1409   -0.3312    2.2314 H   0  0  0  0  0  0  0  0  0  0  0  0
    0.0640    0.5665    1.8314 H   0  0  0  0  0  0  0  0  0  0  0  0
    0.2317   -0.3402    0.3400 H   0  0  0  0  0  0  0  0  0  0  0  0
    0.8828   -1.1605    3.0491 H   0  0  0  0  0  0  0  0  0  0  0  0
    3.4607   -3.4567    0.3397 H   0  0  0  0  0  0  0  0  0  0  0  0
    4.6608   -2.2273    0.6839 H   0  0  0  0  0  0  0  0  0  0  0  0
    2.4823   -1.8544   -1.4520 H   0  0  0  0  0  0  0  0  0  0  0  0
    3.9508   -2.7374   -1.8139 H   0  0  0  0  0  0  0  0  0  0  0  0
    5.2456   -0.8900   -1.9521 H   0  0  0  0  0  0  0  0  0  0  0  0
    3.7063   -0.1812   -2.3737 H   0  0  0  0  0  0  0  0  0  0  0  0
    5.2874    0.0299    0.2140 H   0  0  0  0  0  0  0  0  0  0  0  0
    4.7703    1.8531   -2.0572 H   0  0  0  0  0  0  0  0  0  0  0  0
    5.9440    1.9426   -0.7458 H   0  0  0  0  0  0  0  0  0  0  0  0
    4.5709    3.6986    0.0044 H   0  0  0  0  0  0  0  0  0  0  0  0
    3.1824    3.0877   -0.9074 H   0  0  0  0  0  0  0  0  0  0  0  0
    2.5707    2.5363    1.3555 H   0  0  0  0  0  0  0  0  0  0  0  0
    4.2341    2.0712    1.7650 H   0  0  0  0  0  0  0  0  0  0  0  0
    2.3290    0.6590   -0.1775 H   0  0  0  0  0  0  0  0  0  0  0  0
    2.3511    0.0450    2.3123 H   0  0  0  0  0  0  0  0  0  0  0  0
    4.0137   -0.4628    2.1487 H   0  0  0  0  0  0  0  0  0  0  0  0
   -1.2306   -2.0809    3.5094 H   0  0  0  0  0  0  0  0  0  0  0  0
   -0.2217   -3.4476    3.0332 H   0  0  0  0  0  0  0  0  0  0  0  0
   -3.4425   -1.2266   -0.7438 H   0  0  0  0  0  0  0  0  0  0  0  0
   -3.7383   -2.7925   -0.0236 H   0  0  0  0  0  0  0  0  0  0  0  0
   -1.6754   -3.7115   -1.1283 H   0  0  0  0  0  0  0  0  0  0  0  0
   -2.9041   -3.1387   -2.2493 H   0  0  0  0  0  0  0  0  0  0  0  0
   -0.3561   -1.6297   -1.4862 H   0  0  0  0  0  0  0  0  0  0  0  0
   -1.6233   -1.0056   -2.5638 H   0  0  0  0  0  0  0  0  0  0  0  0
   -0.6947   -2.4424   -3.0157 H   0  0  0  0  0  0  0  0  0  0  0  0
  1  2  1  0
  2  3  1  0
  3  4  1  0
  4  5  1  0
  4  6  1  0
  6  7  1  0
  7  8  1  0
  8  9  1  0
  9 10  1  0
 10 11  2  0
 10 12  1  0
 12 13  1  0
 13 14  1  0
 14 15  1  0
 15 16  1  0
 16 17  1  0
 17 18  1  0
 18 19  1  0
 19 20  1  0
 20 21  1  0
  9 22  1  0
 22 23  1  0
 23 24  2  0
 23 25  1  0
 25 26  1  0
 26 27  1  0
 27 28  1  0
 25  7  1  0
 21 12  1  0
 20 16  1  0
  1 29  1  0
  1 30  1  0
  1 31  1  0
  2 32  1  0
  2 33  1  0
  3 34  1  0
  3 35  1  0
  4 36  1  0
  5 37  1  0
  5 38  1  0
  5 39  1  0
  6 40  1  0
  6 41  1  0
  7 42  1  0
  8 43  1  0
  8 44  1  0
  9 45  1  0
 13 46  1  0
 13 47  1  0
 14 48  1  0
 14 49  1  0
 15 50  1  0
 15 51  1  0
 16 52  1  0
 17 53  1  0
 17 54  1  0
 18 55  1  0
 18 56  1  0
 19 57  1  0
 19 58  1  0
 20 59  1  0
 21 60  1  0
 21 61  1  0
 22 62  1  0
 22 63  1  0
 26 64  1  0
 26 65  1  0
 27 66  1  0
 27 67  1  0
 28 68  1  0
 28 69  1  0
 28 70  1  0
M  END
>  <smiles>
CCCC(C)CC1CC(C(=O)N2CCCC3CCCC3C2)CC(=O)N1CCC

$$$$
