mol_3d426dfdb72b
     RDKit          3D

 39 40  0  0  0  0  0  0  0  0999 V2000
    0.5239    1.9667   -0.4072 O   0  0  0  0  0  0  0  0  0  0  0  0
    0.6823    0.8416    0.0557 C   0  0  0  0  0  0  0  0  0  0  0  0
   -0.3525   -0.0471    0.2099 N   0  0  0  0  0  0  0  0  0  0  0  0
   -1.7139    0.3160   -0.1295 C   0  0  0  0  0  0  0  0  0  0  0  0
   -2.6491   -0.8677    0.1304 C   0  0  0  0  0  0  0  0  0  0  0  0
   -2.2278   -1.9178    0.6238 O   0  0  0  0  0  0  0  0  0  0  0  0
   -3.9711   -0.6942   -0.2122 N   0  0  0  0  0  0  0  0  0  0  0  0
   -4.9501   -1.7513   -0.0335 C   0  0  0  0  0  0  0  0  0  0  0  0
   -6.1643   -1.2766   -0.8182 C   0  0  0  0  0  0  0  0  0  0  0  0
   -6.0719    0.2404   -0.7024 C   0  0  0  0  0  0  0  0  0  0  0  0
   -4.5741    0.4987   -0.7856 C   0  0  0  0  0  0  0  0  0  0  0  0
    2.0410    0.3733    0.4513 C   0  0  0  0  0  0  0  0  0  0  0  0
    2.2426   -0.6540    1.3773 C   0  0  0  0  0  0  0  0  0  0  0  0
    3.5406   -1.0437    1.7103 C   0  0  0  0  0  0  0  0  0  0  0  0
    4.6430   -0.4096    1.1302 C   0  0  0  0  0  0  0  0  0  0  0  0
    4.4660    0.6304    0.2096 C   0  0  0  0  0  0  0  0  0  0  0  0
    5.6089    1.3768   -0.4483 C   0  0  0  0  0  0  0  0  0  0  0  0
    7.0306    0.9231   -0.1587 C   0  0  0  0  0  0  0  0  0  0  0  0
    7.3422    1.0372    1.1509 F   0  0  0  0  0  0  0  0  0  0  0  0
    7.9137    1.6852   -0.8475 F   0  0  0  0  0  0  0  0  0  0  0  0
    7.2379   -0.3598   -0.5279 F   0  0  0  0  0  0  0  0  0  0  0  0
    3.1523    1.0151   -0.1165 C   0  0  0  0  0  0  0  0  0  0  0  0
   -0.2079   -1.0023    0.5184 H   0  0  0  0  0  0  0  0  0  0  0  0
   -2.0096    1.1681    0.4899 H   0  0  0  0  0  0  0  0  0  0  0  0
   -1.7473    0.5964   -1.1867 H   0  0  0  0  0  0  0  0  0  0  0  0
   -5.1688   -1.8277    1.0374 H   0  0  0  0  0  0  0  0  0  0  0  0
   -4.5621   -2.7120   -0.3851 H   0  0  0  0  0  0  0  0  0  0  0  0
   -7.1027   -1.6799   -0.4285 H   0  0  0  0  0  0  0  0  0  0  0  0
   -6.0716   -1.5733   -1.8699 H   0  0  0  0  0  0  0  0  0  0  0  0
   -6.4544    0.5603    0.2744 H   0  0  0  0  0  0  0  0  0  0  0  0
   -6.6342    0.7648   -1.4797 H   0  0  0  0  0  0  0  0  0  0  0  0
   -4.2377    0.5786   -1.8249 H   0  0  0  0  0  0  0  0  0  0  0  0
   -4.2695    1.3966   -0.2412 H   0  0  0  0  0  0  0  0  0  0  0  0
    1.4102   -1.1473    1.8699 H   0  0  0  0  0  0  0  0  0  0  0  0
    3.6969   -1.8417    2.4332 H   0  0  0  0  0  0  0  0  0  0  0  0
    5.6347   -0.7476    1.4248 H   0  0  0  0  0  0  0  0  0  0  0  0
    5.5276    2.4322   -0.1595 H   0  0  0  0  0  0  0  0  0  0  0  0
    5.4592    1.3257   -1.5343 H   0  0  0  0  0  0  0  0  0  0  0  0
    2.9869    1.8265   -0.8258 H   0  0  0  0  0  0  0  0  0  0  0  0
  1  2  2  0
  2  3  1  0
  3  4  1  0
  4  5  1  0
  5  6  2  0
  5  7  1  0
  7  8  1  0
  8  9  1  0
  9 10  1  0
 10 11  1  0
  2 12  1  0
 12 13  1  0
 13 14  2  0
 14 15  1  0
 15 16  2  0
 16 17  1  0
 17 18  1  0
 18 19  1  0
 18 20  1  0
 18 21  1  0
 16 22  1  0
 11  7  1  0
 22 12  2  0
  3 23  1  0
  4 24  1  0
  4 25  1  0
  8 26  1  0
  8 27  1  0
  9 28  1  0
  9 29  1  0
 10 30  1  0
 10 31  1  0
 11 32  1  0
 11 33  1  0
 13 34  1  0
 14 35  1  0
 15 36  1  0
 17 37  1  0
 17 38  1  0
 22 39  1  0
M  END
>  <smiles>
O=C(NCC(=O)N1CCCC1)c1cccc(CC(F)(F)F)c1

$$$$
