mol_3cd1cd11dc56
     RDKit          3D

 54 56  0  0  0  0  0  0  0  0999 V2000
   -6.3891    2.5596    1.7426 C   0  0  0  0  0  0  0  0  0  0  0  0
   -6.4801    1.7770    0.5581 O   0  0  0  0  0  0  0  0  0  0  0  0
   -5.4676    2.0832   -0.3947 C   0  0  0  0  0  0  0  0  0  0  0  0
   -4.1035    1.4783   -0.0590 C   0  0  0  0  0  0  0  0  0  0  0  0
   -4.0969   -0.0651   -0.0286 C   0  0  0  0  0  0  0  0  0  0  0  0
   -4.6499   -0.6560    1.2711 C   0  0  0  0  0  0  0  0  0  0  0  0
   -2.7481   -0.6070   -0.3124 N   0  0  0  0  0  0  0  0  0  0  0  0
   -2.6435   -1.7194   -1.2534 C   0  0  0  0  0  0  0  0  0  0  0  0
   -1.3067   -1.7339   -1.9848 C   0  0  0  0  0  0  0  0  0  0  0  0
   -0.1795   -1.6550   -0.9968 C   0  0  0  0  0  0  0  0  0  0  0  0
    1.0681   -2.2278   -1.2817 C   0  0  0  0  0  0  0  0  0  0  0  0
    2.1194   -2.0985   -0.3730 C   0  0  0  0  0  0  0  0  0  0  0  0
    3.3947   -2.6431   -0.6784 N   0  0  0  0  0  0  0  0  0  0  0  0
    4.4592   -1.6978   -1.5939 S   0  0  0  0  0  0  0  0  0  0  0  0
    3.7089   -0.9485   -2.5790 O   0  0  0  0  0  0  0  0  0  0  0  0
    5.5293   -2.5871   -1.9968 O   0  0  0  0  0  0  0  0  0  0  0  0
    5.1188   -0.5770   -0.3880 C   0  0  0  0  0  0  0  0  0  0  0  0
    6.1505   -1.0018    0.4526 C   0  0  0  0  0  0  0  0  0  0  0  0
    6.6657   -0.1200    1.4006 C   0  0  0  0  0  0  0  0  0  0  0  0
    6.1594    1.1789    1.4976 C   0  0  0  0  0  0  0  0  0  0  0  0
    5.1438    1.6175    0.6368 C   0  0  0  0  0  0  0  0  0  0  0  0
    4.5841    3.0038    0.7643 C   0  0  0  0  0  0  0  0  0  0  0  0
    4.6191    0.7274   -0.3077 C   0  0  0  0  0  0  0  0  0  0  0  0
    1.9457   -1.3848    0.8111 C   0  0  0  0  0  0  0  0  0  0  0  0
    0.7094   -0.8021    1.0955 C   0  0  0  0  0  0  0  0  0  0  0  0
   -0.3552   -0.9345    0.1947 C   0  0  0  0  0  0  0  0  0  0  0  0
   -1.6604   -0.2781    0.5023 C   0  0  0  0  0  0  0  0  0  0  0  0
   -1.7206    0.5118    1.4395 O   0  0  0  0  0  0  0  0  0  0  0  0
   -5.4667    2.3422    2.2872 H   0  0  0  0  0  0  0  0  0  0  0  0
   -6.4469    3.6262    1.5056 H   0  0  0  0  0  0  0  0  0  0  0  0
   -7.2347    2.3017    2.3860 H   0  0  0  0  0  0  0  0  0  0  0  0
   -5.8077    1.6905   -1.3594 H   0  0  0  0  0  0  0  0  0  0  0  0
   -5.3836    3.1704   -0.5122 H   0  0  0  0  0  0  0  0  0  0  0  0
   -3.7471    1.8759    0.8967 H   0  0  0  0  0  0  0  0  0  0  0  0
   -3.3978    1.8241   -0.8255 H   0  0  0  0  0  0  0  0  0  0  0  0
   -4.7446   -0.4076   -0.8452 H   0  0  0  0  0  0  0  0  0  0  0  0
   -4.1294   -0.2638    2.1505 H   0  0  0  0  0  0  0  0  0  0  0  0
   -5.7152   -0.4427    1.3882 H   0  0  0  0  0  0  0  0  0  0  0  0
   -4.5354   -1.7457    1.2796 H   0  0  0  0  0  0  0  0  0  0  0  0
   -2.7815   -2.6430   -0.6779 H   0  0  0  0  0  0  0  0  0  0  0  0
   -3.4485   -1.6539   -1.9931 H   0  0  0  0  0  0  0  0  0  0  0  0
   -1.2342   -2.6471   -2.5862 H   0  0  0  0  0  0  0  0  0  0  0  0
   -1.2356   -0.8743   -2.6622 H   0  0  0  0  0  0  0  0  0  0  0  0
    1.2245   -2.7509   -2.2222 H   0  0  0  0  0  0  0  0  0  0  0  0
    3.4367   -3.6179   -0.9729 H   0  0  0  0  0  0  0  0  0  0  0  0
    6.5503   -2.0103    0.3771 H   0  0  0  0  0  0  0  0  0  0  0  0
    7.4635   -0.4416    2.0660 H   0  0  0  0  0  0  0  0  0  0  0  0
    6.5687    1.8523    2.2484 H   0  0  0  0  0  0  0  0  0  0  0  0
    3.7387    3.0029    1.4592 H   0  0  0  0  0  0  0  0  0  0  0  0
    5.3446    3.7003    1.1327 H   0  0  0  0  0  0  0  0  0  0  0  0
    4.2445    3.3781   -0.2072 H   0  0  0  0  0  0  0  0  0  0  0  0
    3.8190    1.0484   -0.9727 H   0  0  0  0  0  0  0  0  0  0  0  0
    2.7638   -1.2753    1.5183 H   0  0  0  0  0  0  0  0  0  0  0  0
    0.5794   -0.2388    2.0176 H   0  0  0  0  0  0  0  0  0  0  0  0
  1  2  1  0
  2  3  1  0
  3  4  1  0
  4  5  1  0
  5  6  1  0
  5  7  1  0
  7  8  1  0
  8  9  1  0
  9 10  1  0
 10 11  1  0
 11 12  2  0
 12 13  1  0
 13 14  1  0
 14 15  2  0
 14 16  2  0
 14 17  1  0
 17 18  2  0
 18 19  1  0
 19 20  2  0
 20 21  1  0
 21 22  1  0
 21 23  2  0
 12 24  1  0
 24 25  2  0
 25 26  1  0
 26 27  1  0
 27 28  2  0
 27  7  1  0
 26 10  2  0
 23 17  1  0
  1 29  1  0
  1 30  1  0
  1 31  1  0
  3 32  1  0
  3 33  1  0
  4 34  1  0
  4 35  1  0
  5 36  1  0
  6 37  1  0
  6 38  1  0
  6 39  1  0
  8 40  1  0
  8 41  1  0
  9 42  1  0
  9 43  1  0
 11 44  1  0
 13 45  1  0
 18 46  1  0
 19 47  1  0
 20 48  1  0
 22 49  1  0
 22 50  1  0
 22 51  1  0
 23 52  1  0
 24 53  1  0
 25 54  1  0
M  END
>  <smiles>
COCCC(C)N1CCc2cc(NS(=O)(=O)c3cccc(C)c3)ccc2C1=O

$$$$
