mol_6cb0790a15cc
     RDKit          3D

 42 44  0  0  0  0  0  0  0  0999 V2000
    2.2509   -2.3168   -3.5043 C   0  0  0  0  0  0  0  0  0  0  0  0
    1.5488   -1.2262   -2.9210 O   0  0  0  0  0  0  0  0  0  0  0  0
    0.9319   -1.4377   -1.7135 C   0  0  0  0  0  0  0  0  0  0  0  0
    0.7675   -2.6946   -1.1369 C   0  0  0  0  0  0  0  0  0  0  0  0
    0.1496   -2.8246    0.1065 C   0  0  0  0  0  0  0  0  0  0  0  0
   -0.0230   -4.4315    0.7323 Cl  0  0  0  0  0  0  0  0  0  0  0  0
   -0.3153   -1.7008    0.8125 C   0  0  0  0  0  0  0  0  0  0  0  0
   -0.1995   -0.4207    0.2156 C   0  0  0  0  0  0  0  0  0  0  0  0
    0.4362   -0.2893   -1.0547 C   0  0  0  0  0  0  0  0  0  0  0  0
    0.6407    1.0740   -1.7056 C   0  0  0  0  0  0  0  0  0  0  0  0
    1.8244    1.8470   -1.2270 C   0  0  0  0  0  0  0  0  0  0  0  0
    2.8327    1.5463   -0.3866 C   0  0  0  0  0  0  0  0  0  0  0  0
    3.0351    0.3959    0.2664 F   0  0  0  0  0  0  0  0  0  0  0  0
    3.7207    2.6798   -0.2938 C   0  0  0  0  0  0  0  0  0  0  0  0
    3.1858    3.5641   -1.0774 C   0  0  0  0  0  0  0  0  0  0  0  0
    2.0878    3.2140   -1.6762 C   0  0  0  0  0  0  0  0  0  0  0  0
   -0.6770    0.8126    0.9655 C   0  0  0  0  0  0  0  0  0  0  0  0
   -1.6845    0.5401    2.0943 C   0  0  0  0  0  0  0  0  0  0  0  0
   -3.0968    0.2432    1.5648 C   0  0  0  0  0  0  0  0  0  0  0  0
   -3.7719    1.4919    1.0691 C   0  0  0  0  0  0  0  0  0  0  0  0
   -3.8037    1.8883   -0.0833 O   0  0  0  0  0  0  0  0  0  0  0  0
   -4.3478    2.1997    2.0585 O   0  0  0  0  0  0  0  0  0  0  0  0
   -1.1452   -0.5951    2.9610 C   0  0  0  0  0  0  0  0  0  0  0  0
   -0.9718   -1.8837    2.1649 C   0  0  0  0  0  0  0  0  0  0  0  0
    3.0073   -2.7160   -2.8204 H   0  0  0  0  0  0  0  0  0  0  0  0
    2.7700   -1.9424   -4.3918 H   0  0  0  0  0  0  0  0  0  0  0  0
    1.5575   -3.0985   -3.8306 H   0  0  0  0  0  0  0  0  0  0  0  0
    1.1115   -3.5937   -1.6361 H   0  0  0  0  0  0  0  0  0  0  0  0
   -0.2680    1.6732   -1.5794 H   0  0  0  0  0  0  0  0  0  0  0  0
    0.7138    0.9627   -2.7951 H   0  0  0  0  0  0  0  0  0  0  0  0
    4.6786    2.7089    0.1961 H   0  0  0  0  0  0  0  0  0  0  0  0
    1.5711    3.7428   -2.4615 H   0  0  0  0  0  0  0  0  0  0  0  0
   -1.1247    1.5366    0.2806 H   0  0  0  0  0  0  0  0  0  0  0  0
    0.2109    1.2883    1.4023 H   0  0  0  0  0  0  0  0  0  0  0  0
   -1.7369    1.4441    2.7162 H   0  0  0  0  0  0  0  0  0  0  0  0
   -3.7278   -0.1863    2.3527 H   0  0  0  0  0  0  0  0  0  0  0  0
   -3.0936   -0.4847    0.7459 H   0  0  0  0  0  0  0  0  0  0  0  0
   -4.7364    2.9760    1.6031 H   0  0  0  0  0  0  0  0  0  0  0  0
   -0.1743   -0.2953    3.3779 H   0  0  0  0  0  0  0  0  0  0  0  0
   -1.8064   -0.7762    3.8167 H   0  0  0  0  0  0  0  0  0  0  0  0
   -1.9531   -2.3493    2.0098 H   0  0  0  0  0  0  0  0  0  0  0  0
   -0.3755   -2.5662    2.7820 H   0  0  0  0  0  0  0  0  0  0  0  0
  1  2  1  0
  2  3  1  0
  3  4  1  0
  4  5  2  0
  5  6  1  0
  5  7  1  0
  7  8  2  0
  8  9  1  0
  9 10  1  0
 10 11  1  0
 11 12  2  0
 12 13  1  0
 12 14  1  0
 14 15  2  0
 15 16  2  0
  8 17  1  0
 17 18  1  0
 18 19  1  0
 19 20  1  0
 20 21  2  0
 20 22  1  0
 18 23  1  0
 23 24  1  0
  9  3  2  0
 16 11  1  0
 24  7  1  0
  1 25  1  0
  1 26  1  0
  1 27  1  0
  4 28  1  0
 10 29  1  0
 10 30  1  0
 14 31  1  0
 16 32  1  0
 17 33  1  0
 17 34  1  0
 18 35  1  0
 19 36  1  0
 19 37  1  0
 22 38  1  0
 23 39  1  0
 23 40  1  0
 24 41  1  0
 24 42  1  0
M  END
>  <smiles>
COc1cc(Cl)c2c(c1CC1=C(F)C=C=C1)CC(CC(=O)O)CC2

$$$$
