mol_c326899c2d48
     RDKit          3D

 48 50  0  0  0  0  0  0  0  0999 V2000
    5.4989    0.9797    2.0192 C   0  0  0  0  0  0  0  0  0  0  0  0
    4.5137   -0.0433    2.5269 C   0  0  0  0  0  0  0  0  0  0  0  0
    4.6442   -0.5233    3.6529 O   0  0  0  0  0  0  0  0  0  0  0  0
    3.4815   -0.4049    1.6714 N   0  0  0  0  0  0  0  0  0  0  0  0
    3.3349    0.0959    0.3033 C   0  0  0  0  0  0  0  0  0  0  0  0
    2.5311   -0.8551   -0.5740 C   0  0  0  0  0  0  0  0  0  0  0  0
    1.1422   -1.1471    0.0138 C   0  0  0  0  0  0  0  0  0  0  0  0
    0.1254   -0.2812   -0.5719 N   0  0  0  0  0  0  0  0  0  0  0  0
   -0.4593   -0.5484   -1.7983 C   0  0  0  0  0  0  0  0  0  0  0  0
   -0.1248   -1.5101   -2.4849 O   0  0  0  0  0  0  0  0  0  0  0  0
   -1.5385    0.4720   -2.2102 C   0  0  0  0  0  0  0  0  0  0  0  0
   -1.7509    0.4493   -3.7446 C   0  0  0  0  0  0  0  0  0  0  0  0
   -2.8785   -0.4336   -4.2089 C   0  0  0  0  0  0  0  0  0  0  0  0
   -3.8412   -0.8510   -3.3760 C   0  0  0  0  0  0  0  0  0  0  0  0
   -3.8680   -0.4313   -1.9963 C   0  0  0  0  0  0  0  0  0  0  0  0
   -2.8123    0.1793   -1.4275 C   0  0  0  0  0  0  0  0  0  0  0  0
   -2.8923    0.6224   -0.0248 C   0  0  0  0  0  0  0  0  0  0  0  0
   -3.0430   -0.3160    1.0052 C   0  0  0  0  0  0  0  0  0  0  0  0
   -3.0734    0.0956    2.3388 C   0  0  0  0  0  0  0  0  0  0  0  0
   -2.9578    1.4482    2.6535 C   0  0  0  0  0  0  0  0  0  0  0  0
   -2.8148    2.3903    1.6363 C   0  0  0  0  0  0  0  0  0  0  0  0
   -2.7818    1.9797    0.3020 C   0  0  0  0  0  0  0  0  0  0  0  0
    1.1075   -1.0412    1.5448 C   0  0  0  0  0  0  0  0  0  0  0  0
    2.4687   -1.3427    2.1541 C   0  0  0  0  0  0  0  0  0  0  0  0
    6.1276    1.3200    2.8475 H   0  0  0  0  0  0  0  0  0  0  0  0
    6.1403    0.5303    1.2566 H   0  0  0  0  0  0  0  0  0  0  0  0
    4.9774    1.8490    1.6104 H   0  0  0  0  0  0  0  0  0  0  0  0
    2.8400    1.0722    0.3663 H   0  0  0  0  0  0  0  0  0  0  0  0
    4.3218    0.2547   -0.1410 H   0  0  0  0  0  0  0  0  0  0  0  0
    3.0831   -1.8019   -0.6465 H   0  0  0  0  0  0  0  0  0  0  0  0
    2.4614   -0.4562   -1.5925 H   0  0  0  0  0  0  0  0  0  0  0  0
    0.8798   -2.1760   -0.2657 H   0  0  0  0  0  0  0  0  0  0  0  0
   -0.2079    0.5153   -0.0411 H   0  0  0  0  0  0  0  0  0  0  0  0
   -1.1506    1.4683   -1.9597 H   0  0  0  0  0  0  0  0  0  0  0  0
   -0.8293    0.1516   -4.2588 H   0  0  0  0  0  0  0  0  0  0  0  0
   -1.9752    1.4683   -4.0870 H   0  0  0  0  0  0  0  0  0  0  0  0
   -2.8919   -0.7348   -5.2521 H   0  0  0  0  0  0  0  0  0  0  0  0
   -4.6452   -1.4898   -3.7295 H   0  0  0  0  0  0  0  0  0  0  0  0
   -4.7826   -0.6276   -1.4421 H   0  0  0  0  0  0  0  0  0  0  0  0
   -3.1215   -1.3768    0.7746 H   0  0  0  0  0  0  0  0  0  0  0  0
   -3.1879   -0.6400    3.1310 H   0  0  0  0  0  0  0  0  0  0  0  0
   -2.9863    1.7686    3.6922 H   0  0  0  0  0  0  0  0  0  0  0  0
   -2.7364    3.4464    1.8821 H   0  0  0  0  0  0  0  0  0  0  0  0
   -2.6846    2.7301   -0.4793 H   0  0  0  0  0  0  0  0  0  0  0  0
    0.8015   -0.0325    1.8535 H   0  0  0  0  0  0  0  0  0  0  0  0
    0.3508   -1.7269    1.9440 H   0  0  0  0  0  0  0  0  0  0  0  0
    2.8008   -2.3527    1.8860 H   0  0  0  0  0  0  0  0  0  0  0  0
    2.4031   -1.3000    3.2465 H   0  0  0  0  0  0  0  0  0  0  0  0
  1  2  1  0
  2  3  2  0
  2  4  1  0
  4  5  1  0
  5  6  1  0
  6  7  1  0
  7  8  1  0
  8  9  1  0
  9 10  2  0
  9 11  1  0
 11 12  1  0
 12 13  1  0
 13 14  2  0
 14 15  1  0
 15 16  2  0
 16 17  1  0
 17 18  2  0
 18 19  1  0
 19 20  2  0
 20 21  1  0
 21 22  2  0
  7 23  1  0
 23 24  1  0
 24  4  1  0
 16 11  1  0
 22 17  1  0
  1 25  1  0
  1 26  1  0
  1 27  1  0
  5 28  1  0
  5 29  1  0
  6 30  1  0
  6 31  1  0
  7 32  1  0
  8 33  1  0
 11 34  1  0
 12 35  1  0
 12 36  1  0
 13 37  1  0
 14 38  1  0
 15 39  1  0
 18 40  1  0
 19 41  1  0
 20 42  1  0
 21 43  1  0
 22 44  1  0
 23 45  1  0
 23 46  1  0
 24 47  1  0
 24 48  1  0
M  END
>  <smiles>
CC(=O)N1CCC(NC(=O)C2CC=CC=C2c2ccccc2)CC1

$$$$
