mol_fa648778786a
     RDKit          3D

 60 62  0  0  0  0  0  0  0  0999 V2000
    3.1211    3.0749   -1.3689 C   0  0  0  0  0  0  0  0  0  0  0  0
    3.2974    1.5631   -1.3679 C   0  0  0  0  0  0  0  0  0  0  0  0
    3.9908    1.0268   -0.0975 C   0  0  0  0  0  0  0  0  0  0  0  0
    3.2615    1.3397    1.2069 C   0  0  0  0  0  0  0  0  0  0  0  0
    1.8806    0.6937    1.2511 C   0  0  0  0  0  0  0  0  0  0  0  0
    1.8385   -0.7526    0.7959 C   0  0  0  0  0  0  0  0  0  0  0  0
    0.6753   -1.5336    1.0177 C   0  0  0  0  0  0  0  0  0  0  0  0
   -0.5726   -0.9853    1.6837 C   0  0  0  0  0  0  0  0  0  0  0  0
   -1.9184   -1.2577    0.9828 C   0  0  0  0  0  0  0  0  0  0  0  0
   -2.2336   -0.4959   -0.3426 C   0  0  0  0  0  0  0  0  0  0  0  0
   -1.3703   -1.0223   -1.5049 C   0  0  0  0  0  0  0  0  0  0  0  0
   -2.0306    1.0265   -0.2511 C   0  0  0  0  0  0  0  0  0  0  0  0
   -2.9996    1.6640    0.7399 C   0  0  0  0  0  0  0  0  0  0  0  0
   -2.7440    3.1645    0.8672 C   0  0  0  0  0  0  0  0  0  0  0  0
   -4.4218    1.3956    0.2627 C   0  0  0  0  0  0  0  0  0  0  0  0
   -4.6786    0.0104   -0.1093 N   0  0  0  0  0  0  0  0  0  0  0  0
   -6.0752   -0.3653   -0.2582 C   0  0  0  0  0  0  0  0  0  0  0  0
   -3.7093   -0.8239   -0.6575 C   0  0  0  0  0  0  0  0  0  0  0  0
   -4.0101   -1.8488   -1.2734 O   0  0  0  0  0  0  0  0  0  0  0  0
    0.6927   -2.8884    0.6522 C   0  0  0  0  0  0  0  0  0  0  0  0
    1.7988   -3.4541    0.0258 C   0  0  0  0  0  0  0  0  0  0  0  0
    2.9325   -2.6859   -0.2492 C   0  0  0  0  0  0  0  0  0  0  0  0
    4.0958   -3.3436   -0.9430 C   0  0  0  0  0  0  0  0  0  0  0  0
    2.9509   -1.3199    0.1161 C   0  0  0  0  0  0  0  0  0  0  0  0
    4.1923   -0.4942   -0.1746 C   0  0  0  0  0  0  0  0  0  0  0  0
    2.4102    3.3965   -0.6023 H   0  0  0  0  0  0  0  0  0  0  0  0
    4.0749    3.5826   -1.1949 H   0  0  0  0  0  0  0  0  0  0  0  0
    2.7332    3.4061   -2.3377 H   0  0  0  0  0  0  0  0  0  0  0  0
    2.3202    1.0907   -1.5181 H   0  0  0  0  0  0  0  0  0  0  0  0
    3.9053    1.2915   -2.2403 H   0  0  0  0  0  0  0  0  0  0  0  0
    4.9855    1.4906   -0.0523 H   0  0  0  0  0  0  0  0  0  0  0  0
    3.1723    2.4201    1.3647 H   0  0  0  0  0  0  0  0  0  0  0  0
    3.8603    0.9618    2.0470 H   0  0  0  0  0  0  0  0  0  0  0  0
    1.1965    1.2743    0.6231 H   0  0  0  0  0  0  0  0  0  0  0  0
    1.5276    0.7624    2.2868 H   0  0  0  0  0  0  0  0  0  0  0  0
   -0.6142   -1.4455    2.6808 H   0  0  0  0  0  0  0  0  0  0  0  0
   -0.4969    0.0874    1.8734 H   0  0  0  0  0  0  0  0  0  0  0  0
   -2.0403   -2.3347    0.8092 H   0  0  0  0  0  0  0  0  0  0  0  0
   -2.7022   -1.0209    1.7160 H   0  0  0  0  0  0  0  0  0  0  0  0
   -1.7515   -0.6621   -2.4682 H   0  0  0  0  0  0  0  0  0  0  0  0
   -0.3319   -0.6876   -1.4264 H   0  0  0  0  0  0  0  0  0  0  0  0
   -1.3755   -2.1171   -1.5493 H   0  0  0  0  0  0  0  0  0  0  0  0
   -2.1884    1.4769   -1.2418 H   0  0  0  0  0  0  0  0  0  0  0  0
   -0.9987    1.2651    0.0226 H   0  0  0  0  0  0  0  0  0  0  0  0
   -2.8621    1.2197    1.7323 H   0  0  0  0  0  0  0  0  0  0  0  0
   -2.8570    3.6737   -0.0960 H   0  0  0  0  0  0  0  0  0  0  0  0
   -3.4458    3.6184    1.5748 H   0  0  0  0  0  0  0  0  0  0  0  0
   -1.7290    3.3542    1.2324 H   0  0  0  0  0  0  0  0  0  0  0  0
   -4.6506    2.0038   -0.6216 H   0  0  0  0  0  0  0  0  0  0  0  0
   -5.1291    1.6787    1.0513 H   0  0  0  0  0  0  0  0  0  0  0  0
   -6.6239   -0.0774    0.6432 H   0  0  0  0  0  0  0  0  0  0  0  0
   -6.4883    0.1591   -1.1249 H   0  0  0  0  0  0  0  0  0  0  0  0
   -6.1900   -1.4424   -0.4071 H   0  0  0  0  0  0  0  0  0  0  0  0
   -0.1648   -3.5273    0.8507 H   0  0  0  0  0  0  0  0  0  0  0  0
    1.7643   -4.5061   -0.2486 H   0  0  0  0  0  0  0  0  0  0  0  0
    3.9665   -4.4298   -1.0023 H   0  0  0  0  0  0  0  0  0  0  0  0
    4.1905   -2.9626   -1.9646 H   0  0  0  0  0  0  0  0  0  0  0  0
    5.0255   -3.1621   -0.3945 H   0  0  0  0  0  0  0  0  0  0  0  0
    4.5882   -0.7410   -1.1666 H   0  0  0  0  0  0  0  0  0  0  0  0
    4.9548   -0.7847    0.5605 H   0  0  0  0  0  0  0  0  0  0  0  0
  1  2  1  0
  2  3  1  0
  3  4  1  0
  4  5  1  0
  5  6  1  0
  6  7  2  0
  7  8  1  0
  8  9  1  0
  9 10  1  0
 10 11  1  0
 10 12  1  0
 12 13  1  0
 13 14  1  0
 13 15  1  0
 15 16  1  0
 16 17  1  0
 16 18  1  0
 18 19  2  0
  7 20  1  0
 20 21  2  0
 21 22  1  0
 22 23  1  0
 22 24  2  0
 24 25  1  0
 25  3  1  0
 24  6  1  0
 18 10  1  0
  1 26  1  0
  1 27  1  0
  1 28  1  0
  2 29  1  0
  2 30  1  0
  3 31  1  0
  4 32  1  0
  4 33  1  0
  5 34  1  0
  5 35  1  0
  8 36  1  0
  8 37  1  0
  9 38  1  0
  9 39  1  0
 11 40  1  0
 11 41  1  0
 11 42  1  0
 12 43  1  0
 12 44  1  0
 13 45  1  0
 14 46  1  0
 14 47  1  0
 14 48  1  0
 15 49  1  0
 15 50  1  0
 17 51  1  0
 17 52  1  0
 17 53  1  0
 20 54  1  0
 21 55  1  0
 23 56  1  0
 23 57  1  0
 23 58  1  0
 25 59  1  0
 25 60  1  0
M  END
>  <smiles>
CCC1CCc2c(CCC3(C)CC(C)CN(C)C3=O)ccc(C)c2C1

$$$$
