mol_326d63252f44
     RDKit          3D

 33 35  0  0  0  0  0  0  0  0999 V2000
    0.7837   -1.7955    1.4538 O   0  0  0  0  0  0  0  0  0  0  0  0
    0.8187   -0.9205    0.5945 C   0  0  0  0  0  0  0  0  0  0  0  0
    2.1349   -0.3549    0.2305 C   0  0  0  0  0  0  0  0  0  0  0  0
    2.3820    1.0186    0.3413 C   0  0  0  0  0  0  0  0  0  0  0  0
    3.6401    1.5238    0.0119 C   0  0  0  0  0  0  0  0  0  0  0  0
    4.6482    0.6559   -0.4132 C   0  0  0  0  0  0  0  0  0  0  0  0
    4.3994   -0.7153   -0.4975 C   0  0  0  0  0  0  0  0  0  0  0  0
    5.6522   -1.7770   -1.0111 Cl  0  0  0  0  0  0  0  0  0  0  0  0
    3.1482   -1.2298   -0.1702 C   0  0  0  0  0  0  0  0  0  0  0  0
   -0.3080   -0.4472   -0.0526 N   0  0  0  0  0  0  0  0  0  0  0  0
   -0.3439    0.4183   -1.2248 C   0  0  0  0  0  0  0  0  0  0  0  0
   -1.7014    0.1514   -1.8590 C   0  0  0  0  0  0  0  0  0  0  0  0
   -2.5826   -0.2410   -0.6815 C   0  0  0  0  0  0  0  0  0  0  0  0
   -3.1109    0.9354    0.1375 C   0  0  0  0  0  0  0  0  0  0  0  0
   -3.3130    0.3234    1.5118 C   0  0  0  0  0  0  0  0  0  0  0  0
   -2.1373   -0.6329    1.6910 C   0  0  0  0  0  0  0  0  0  0  0  0
   -2.5966   -1.7559    2.3070 F   0  0  0  0  0  0  0  0  0  0  0  0
   -1.6363   -0.9763    0.2783 C   0  0  0  0  0  0  0  0  0  0  0  0
    1.6070    1.6907    0.7005 H   0  0  0  0  0  0  0  0  0  0  0  0
    3.8404    2.5893    0.0964 H   0  0  0  0  0  0  0  0  0  0  0  0
    5.6289    1.0517   -0.6658 H   0  0  0  0  0  0  0  0  0  0  0  0
    2.9563   -2.2987   -0.2206 H   0  0  0  0  0  0  0  0  0  0  0  0
    0.4829    0.2029   -1.9076 H   0  0  0  0  0  0  0  0  0  0  0  0
   -0.2666    1.4556   -0.8837 H   0  0  0  0  0  0  0  0  0  0  0  0
   -2.0784    1.0100   -2.4220 H   0  0  0  0  0  0  0  0  0  0  0  0
   -1.6193   -0.6981   -2.5481 H   0  0  0  0  0  0  0  0  0  0  0  0
   -3.4169   -0.8815   -0.9902 H   0  0  0  0  0  0  0  0  0  0  0  0
   -2.3878    1.7570    0.1944 H   0  0  0  0  0  0  0  0  0  0  0  0
   -4.0409    1.3376   -0.2756 H   0  0  0  0  0  0  0  0  0  0  0  0
   -3.3414    1.0853    2.2967 H   0  0  0  0  0  0  0  0  0  0  0  0
   -4.2596   -0.2284    1.5535 H   0  0  0  0  0  0  0  0  0  0  0  0
   -1.3581   -0.1961    2.3233 H   0  0  0  0  0  0  0  0  0  0  0  0
   -1.6241   -2.0576    0.1010 H   0  0  0  0  0  0  0  0  0  0  0  0
  1  2  2  0
  2  3  1  0
  3  4  2  0
  4  5  1  0
  5  6  2  0
  6  7  1  0
  7  8  1  0
  7  9  2  0
  2 10  1  0
 10 11  1  0
 11 12  1  0
 12 13  1  0
 13 14  1  0
 14 15  1  0
 15 16  1  0
 16 17  1  0
 16 18  1  0
  9  3  1  0
 18 10  1  0
 18 13  1  0
  4 19  1  0
  5 20  1  0
  6 21  1  0
  9 22  1  0
 11 23  1  0
 11 24  1  0
 12 25  1  0
 12 26  1  0
 13 27  1  0
 14 28  1  0
 14 29  1  0
 15 30  1  0
 15 31  1  0
 16 32  1  0
 18 33  1  0
M  END
>  <smiles>
O=C(c1cccc(Cl)c1)N1CCC2CCC(F)C21

$$$$
