mol_28931d24bd42
     RDKit          3D

 55 59  0  0  0  0  0  0  0  0999 V2000
    3.2263    4.1206    0.1438 C   0  0  0  0  0  0  0  0  0  0  0  0
    2.5869    2.7686    0.2053 C   0  0  0  0  0  0  0  0  0  0  0  0
    3.1273    1.5447    0.0062 C   0  0  0  0  0  0  0  0  0  0  0  0
    4.4696    1.4783   -0.3336 N   0  0  0  0  0  0  0  0  0  0  0  0
    5.1494    0.3196   -0.6177 C   0  0  0  0  0  0  0  0  0  0  0  0
    6.3377    0.3101   -0.9186 O   0  0  0  0  0  0  0  0  0  0  0  0
    4.3596   -0.9128   -0.5408 C   0  0  0  0  0  0  0  0  0  0  0  0
    3.0684   -0.8515   -0.1983 C   0  0  0  0  0  0  0  0  0  0  0  0
    2.4826   -2.2307   -0.1500 C   0  0  0  0  0  0  0  0  0  0  0  0
    3.7269   -3.1288   -0.1864 C   0  0  0  0  0  0  0  0  0  0  0  0
    4.8561   -2.2855   -0.7836 C   0  0  0  0  0  0  0  0  0  0  0  0
    2.3970    0.3319    0.0937 N   0  0  0  0  0  0  0  0  0  0  0  0
    1.0307    0.2878    0.4965 C   0  0  0  0  0  0  0  0  0  0  0  0
    0.6706    0.5265    1.8264 C   0  0  0  0  0  0  0  0  0  0  0  0
   -0.6677    0.4673    2.2180 C   0  0  0  0  0  0  0  0  0  0  0  0
   -1.6808    0.1647    1.2907 C   0  0  0  0  0  0  0  0  0  0  0  0
   -1.3312   -0.0696   -0.0513 C   0  0  0  0  0  0  0  0  0  0  0  0
    0.0226   -0.0087   -0.4309 C   0  0  0  0  0  0  0  0  0  0  0  0
   -2.3644   -0.3642   -1.1113 C   0  0  0  0  0  0  0  0  0  0  0  0
   -2.5474    0.8071   -2.0939 C   0  0  0  0  0  0  0  0  0  0  0  0
   -4.0254    0.8281   -2.4815 C   0  0  0  0  0  0  0  0  0  0  0  0
   -4.6558   -0.3801   -1.8038 C   0  0  0  0  0  0  0  0  0  0  0  0
   -3.7743   -0.6561   -0.5867 C   0  0  0  0  0  0  0  0  0  0  0  0
   -4.1291    0.2269    0.6124 C   0  0  0  0  0  0  0  0  0  0  0  0
   -3.1228    0.0985    1.7690 C   0  0  0  0  0  0  0  0  0  0  0  0
   -3.3846   -1.1303    2.6658 C   0  0  0  0  0  0  0  0  0  0  0  0
   -3.3166   -2.3581    1.9543 O   0  0  0  0  0  0  0  0  0  0  0  0
    2.7558    4.7123   -0.6478 H   0  0  0  0  0  0  0  0  0  0  0  0
    3.0675    4.6409    1.0940 H   0  0  0  0  0  0  0  0  0  0  0  0
    4.3009    4.1043   -0.0445 H   0  0  0  0  0  0  0  0  0  0  0  0
    1.5255    2.8315    0.4373 H   0  0  0  0  0  0  0  0  0  0  0  0
    5.0282    2.3134   -0.4054 H   0  0  0  0  0  0  0  0  0  0  0  0
    1.9053   -2.4200    0.7601 H   0  0  0  0  0  0  0  0  0  0  0  0
    1.8476   -2.4110   -1.0240 H   0  0  0  0  0  0  0  0  0  0  0  0
    3.5534   -4.0472   -0.7566 H   0  0  0  0  0  0  0  0  0  0  0  0
    3.9927   -3.4290    0.8360 H   0  0  0  0  0  0  0  0  0  0  0  0
    5.8067   -2.4891   -0.2824 H   0  0  0  0  0  0  0  0  0  0  0  0
    4.9677   -2.4724   -1.8566 H   0  0  0  0  0  0  0  0  0  0  0  0
    1.4380    0.7507    2.5628 H   0  0  0  0  0  0  0  0  0  0  0  0
   -0.9157    0.6580    3.2597 H   0  0  0  0  0  0  0  0  0  0  0  0
    0.2990   -0.1852   -1.4687 H   0  0  0  0  0  0  0  0  0  0  0  0
   -2.0334   -1.2464   -1.6783 H   0  0  0  0  0  0  0  0  0  0  0  0
   -2.2716    1.7709   -1.6484 H   0  0  0  0  0  0  0  0  0  0  0  0
   -1.9117    0.6718   -2.9765 H   0  0  0  0  0  0  0  0  0  0  0  0
   -4.1634    0.7979   -3.5670 H   0  0  0  0  0  0  0  0  0  0  0  0
   -4.4906    1.7525   -2.1201 H   0  0  0  0  0  0  0  0  0  0  0  0
   -4.6176   -1.2383   -2.4863 H   0  0  0  0  0  0  0  0  0  0  0  0
   -5.7053   -0.2088   -1.5451 H   0  0  0  0  0  0  0  0  0  0  0  0
   -3.8724   -1.7096   -0.3070 H   0  0  0  0  0  0  0  0  0  0  0  0
   -5.1418   -0.0059    0.9641 H   0  0  0  0  0  0  0  0  0  0  0  0
   -4.1551    1.2795    0.2992 H   0  0  0  0  0  0  0  0  0  0  0  0
   -3.2829    0.9812    2.4055 H   0  0  0  0  0  0  0  0  0  0  0  0
   -2.6635   -1.1745    3.4894 H   0  0  0  0  0  0  0  0  0  0  0  0
   -4.3859   -1.0578    3.1046 H   0  0  0  0  0  0  0  0  0  0  0  0
   -3.3889   -3.0738    2.6080 H   0  0  0  0  0  0  0  0  0  0  0  0
  1  2  1  0
  2  3  2  3
  3  4  1  0
  4  5  1  0
  5  6  2  0
  5  7  1  0
  7  8  2  0
  8  9  1  0
  9 10  1  0
 10 11  1  0
  8 12  1  0
 12 13  1  0
 13 14  1  0
 14 15  2  0
 15 16  1  0
 16 17  2  0
 17 18  1  0
 17 19  1  0
 19 20  1  0
 20 21  1  0
 21 22  1  0
 22 23  1  0
 23 24  1  0
 24 25  1  0
 25 26  1  0
 26 27  1  0
 12  3  1  0
 18 13  2  0
 23 19  1  0
 11  7  1  0
 25 16  1  0
  1 28  1  0
  1 29  1  0
  1 30  1  0
  2 31  1  0
  4 32  1  0
  9 33  1  0
  9 34  1  0
 10 35  1  0
 10 36  1  0
 11 37  1  0
 11 38  1  0
 14 39  1  0
 15 40  1  0
 18 41  1  0
 19 42  1  0
 20 43  1  0
 20 44  1  0
 21 45  1  0
 21 46  1  0
 22 47  1  0
 22 48  1  0
 23 49  1  0
 24 50  1  0
 24 51  1  0
 25 52  1  0
 26 53  1  0
 26 54  1  0
 27 55  1  0
M  END
>  <smiles>
CC=C1NC(=O)C2=C(CCC2)N1c1ccc2c(c1)C1CCCC1CC2CO

$$$$
