mol_afd5418426ca
     RDKit          3D

 38 39  0  0  0  0  0  0  0  0999 V2000
   -1.9427    3.5360    0.8772 O   0  0  0  0  0  0  0  0  0  0  0  0
   -2.6586    2.5904    0.6199 C   0  0  0  0  0  0  0  0  0  0  0  0
   -3.9762    2.8089    0.4441 O   0  0  0  0  0  0  0  0  0  0  0  0
   -2.4198    1.2748    0.4312 N   0  0  0  0  0  0  0  0  0  0  0  0
   -1.2370    0.5023    0.5011 C   0  0  0  0  0  0  0  0  0  0  0  0
   -1.3791   -0.8424    0.0740 C   0  0  0  0  0  0  0  0  0  0  0  0
   -2.6427   -1.1979   -0.3500 O   0  0  0  0  0  0  0  0  0  0  0  0
   -2.8673   -2.5777   -0.6659 C   0  0  0  0  0  0  0  0  0  0  0  0
   -4.3374   -2.7328   -1.0467 C   0  0  0  0  0  0  0  0  0  0  0  0
   -4.6098   -2.0394   -2.2632 O   0  0  0  0  0  0  0  0  0  0  0  0
   -0.2834   -1.7075    0.0850 C   0  0  0  0  0  0  0  0  0  0  0  0
    0.9598   -1.2517    0.5174 C   0  0  0  0  0  0  0  0  0  0  0  0
    1.1256    0.0711    0.9526 C   0  0  0  0  0  0  0  0  0  0  0  0
    0.0179    0.9433    0.9601 C   0  0  0  0  0  0  0  0  0  0  0  0
    0.1361    2.2208    1.4541 O   0  0  0  0  0  0  0  0  0  0  0  0
    1.3202    2.6238    2.0159 C   0  0  0  0  0  0  0  0  0  0  0  0
    2.4418    1.9003    2.0312 C   0  0  0  0  0  0  0  0  0  0  0  0
    2.4878    0.5448    1.4117 C   0  0  0  0  0  0  0  0  0  0  0  0
    3.3916    0.6502    0.2886 N   0  0  0  0  0  0  0  0  0  0  0  0
    4.3309   -0.3122   -0.0192 C   0  0  0  0  0  0  0  0  0  0  0  0
    4.4868   -1.3316    0.6513 O   0  0  0  0  0  0  0  0  0  0  0  0
    5.1824    0.0134   -1.2477 C   0  0  0  0  0  0  0  0  0  0  0  0
    6.4441    0.3976   -0.9095 F   0  0  0  0  0  0  0  0  0  0  0  0
    4.6570    1.0483   -1.9696 F   0  0  0  0  0  0  0  0  0  0  0  0
   -4.0426    3.7753    0.5931 H   0  0  0  0  0  0  0  0  0  0  0  0
   -3.2470    0.7612    0.1532 H   0  0  0  0  0  0  0  0  0  0  0  0
   -2.6524   -3.2038    0.2072 H   0  0  0  0  0  0  0  0  0  0  0  0
   -2.2421   -2.8644   -1.5192 H   0  0  0  0  0  0  0  0  0  0  0  0
   -4.9912   -2.3183   -0.2730 H   0  0  0  0  0  0  0  0  0  0  0  0
   -4.5866   -3.7869   -1.1976 H   0  0  0  0  0  0  0  0  0  0  0  0
   -4.2745   -1.1313   -2.1470 H   0  0  0  0  0  0  0  0  0  0  0  0
   -0.3563   -2.7395   -0.2416 H   0  0  0  0  0  0  0  0  0  0  0  0
    1.8058   -1.9381    0.5223 H   0  0  0  0  0  0  0  0  0  0  0  0
    1.2214    3.6142    2.4405 H   0  0  0  0  0  0  0  0  0  0  0  0
    3.3371    2.2875    2.5056 H   0  0  0  0  0  0  0  0  0  0  0  0
    2.8778   -0.1641    2.1521 H   0  0  0  0  0  0  0  0  0  0  0  0
    3.2827    1.4385   -0.3420 H   0  0  0  0  0  0  0  0  0  0  0  0
    5.2396   -0.8630   -1.8986 H   0  0  0  0  0  0  0  0  0  0  0  0
  1  2  2  0
  2  3  1  0
  2  4  1  0
  4  5  1  0
  5  6  2  0
  6  7  1  0
  7  8  1  0
  8  9  1  0
  9 10  1  0
  6 11  1  0
 11 12  2  0
 12 13  1  0
 13 14  2  0
 14 15  1  0
 15 16  1  0
 16 17  2  0
 17 18  1  0
 18 19  1  0
 19 20  1  0
 20 21  2  0
 20 22  1  0
 22 23  1  0
 22 24  1  0
 14  5  1  0
 18 13  1  0
  3 25  1  0
  4 26  1  0
  8 27  1  0
  8 28  1  0
  9 29  1  0
  9 30  1  0
 10 31  1  0
 11 32  1  0
 12 33  1  0
 16 34  1  0
 17 35  1  0
 18 36  1  0
 19 37  1  0
 22 38  1  0
M  END
>  <smiles>
O=C(O)Nc1c(OCCO)ccc2c1OC=CC2NC(=O)C(F)F

$$$$
