mol_501cdd28e2b7
     RDKit          3D

 49 50  0  0  0  0  0  0  0  0999 V2000
   -6.0658   -0.1386   -1.7369 C   0  0  0  0  0  0  0  0  0  0  0  0
   -5.2914   -0.1034   -0.4134 C   0  0  0  0  0  0  0  0  0  0  0  0
   -4.7737   -1.5035   -0.0632 C   0  0  0  0  0  0  0  0  0  0  0  0
   -4.2605    0.9451   -0.4543 N   0  0  0  0  0  0  0  0  0  0  0  0
   -3.8836    1.4299    0.8873 C   0  0  0  0  0  0  0  0  0  0  0  0
   -2.5821    2.2501    0.8943 C   0  0  0  0  0  0  0  0  0  0  0  0
   -1.4484    1.4679    0.3948 N   0  0  0  0  0  0  0  0  0  0  0  0
   -0.1795    1.7312    0.8863 C   0  0  0  0  0  0  0  0  0  0  0  0
    0.0355    2.6372    1.6913 O   0  0  0  0  0  0  0  0  0  0  0  0
    0.9442    0.8457    0.3754 C   0  0  0  0  0  0  0  0  0  0  0  0
    2.2505    1.1003    1.1256 C   0  0  0  0  0  0  0  0  0  0  0  0
    3.3633    0.2163    0.6146 C   0  0  0  0  0  0  0  0  0  0  0  0
    3.5219   -1.0834    1.1144 C   0  0  0  0  0  0  0  0  0  0  0  0
    4.5380   -1.9156    0.6283 C   0  0  0  0  0  0  0  0  0  0  0  0
    4.6522   -3.2841    1.1896 C   0  0  0  0  0  0  0  0  0  0  0  0
    3.9190   -3.7744    2.0278 O   0  0  0  0  0  0  0  0  0  0  0  0
    5.6817   -3.9746    0.6695 O   0  0  0  0  0  0  0  0  0  0  0  0
    5.4043   -1.4452   -0.3664 C   0  0  0  0  0  0  0  0  0  0  0  0
    5.2643   -0.1442   -0.8771 C   0  0  0  0  0  0  0  0  0  0  0  0
    6.1834    0.3491   -1.9682 C   0  0  0  0  0  0  0  0  0  0  0  0
    7.4468   -0.1488   -1.8662 F   0  0  0  0  0  0  0  0  0  0  0  0
    5.7418    0.0007   -3.2079 F   0  0  0  0  0  0  0  0  0  0  0  0
    6.3180    1.7042   -1.9856 F   0  0  0  0  0  0  0  0  0  0  0  0
    4.2330    0.6734   -0.3855 C   0  0  0  0  0  0  0  0  0  0  0  0
   -1.7701    0.4308   -0.5910 C   0  0  0  0  0  0  0  0  0  0  0  0
   -3.1001    0.6945   -1.3251 C   0  0  0  0  0  0  0  0  0  0  0  0
   -5.4465   -0.4783   -2.5732 H   0  0  0  0  0  0  0  0  0  0  0  0
   -6.4599    0.8532   -1.9857 H   0  0  0  0  0  0  0  0  0  0  0  0
   -6.9200   -0.8207   -1.6608 H   0  0  0  0  0  0  0  0  0  0  0  0
   -6.0275    0.1763    0.3528 H   0  0  0  0  0  0  0  0  0  0  0  0
   -4.0983   -1.8981   -0.8289 H   0  0  0  0  0  0  0  0  0  0  0  0
   -5.6111   -2.2048    0.0254 H   0  0  0  0  0  0  0  0  0  0  0  0
   -4.2435   -1.5107    0.8940 H   0  0  0  0  0  0  0  0  0  0  0  0
   -3.7505    0.5884    1.5782 H   0  0  0  0  0  0  0  0  0  0  0  0
   -4.6967    2.0502    1.2817 H   0  0  0  0  0  0  0  0  0  0  0  0
   -2.3756    2.6068    1.9093 H   0  0  0  0  0  0  0  0  0  0  0  0
   -2.6789    3.1320    0.2495 H   0  0  0  0  0  0  0  0  0  0  0  0
    0.6489   -0.2039    0.4887 H   0  0  0  0  0  0  0  0  0  0  0  0
    1.0849    1.0500   -0.6925 H   0  0  0  0  0  0  0  0  0  0  0  0
    2.5478    2.1528    1.0313 H   0  0  0  0  0  0  0  0  0  0  0  0
    2.1141    0.9270    2.2010 H   0  0  0  0  0  0  0  0  0  0  0  0
    2.8497   -1.4520    1.8890 H   0  0  0  0  0  0  0  0  0  0  0  0
    5.6417   -4.8405    1.1278 H   0  0  0  0  0  0  0  0  0  0  0  0
    6.1951   -2.0885   -0.7510 H   0  0  0  0  0  0  0  0  0  0  0  0
    4.1107    1.6810   -0.7853 H   0  0  0  0  0  0  0  0  0  0  0  0
   -1.8178   -0.5216   -0.0502 H   0  0  0  0  0  0  0  0  0  0  0  0
   -0.9614    0.3549   -1.3238 H   0  0  0  0  0  0  0  0  0  0  0  0
   -3.2798   -0.1125   -2.0430 H   0  0  0  0  0  0  0  0  0  0  0  0
   -2.9685    1.5984   -1.9345 H   0  0  0  0  0  0  0  0  0  0  0  0
  1  2  1  0
  2  3  1  0
  2  4  1  0
  4  5  1  0
  5  6  1  0
  6  7  1  0
  7  8  1  0
  8  9  2  0
  8 10  1  0
 10 11  1  0
 11 12  1  0
 12 13  2  0
 13 14  1  0
 14 15  1  0
 15 16  2  0
 15 17  1  0
 14 18  2  0
 18 19  1  0
 19 20  1  0
 20 21  1  0
 20 22  1  0
 20 23  1  0
 19 24  2  0
  7 25  1  0
 25 26  1  0
 26  4  1  0
 24 12  1  0
  1 27  1  0
  1 28  1  0
  1 29  1  0
  2 30  1  0
  3 31  1  0
  3 32  1  0
  3 33  1  0
  5 34  1  0
  5 35  1  0
  6 36  1  0
  6 37  1  0
 10 38  1  0
 10 39  1  0
 11 40  1  0
 11 41  1  0
 13 42  1  0
 17 43  1  0
 18 44  1  0
 24 45  1  0
 25 46  1  0
 25 47  1  0
 26 48  1  0
 26 49  1  0
M  END
>  <smiles>
CC(C)N1CCN(C(=O)CCc2cc(C(=O)O)cc(C(F)(F)F)c2)CC1

$$$$
