mol_e5efd1661277
     RDKit          3D

 60 61  0  0  0  0  0  0  0  0999 V2000
    3.2493   -2.2200   -2.2251 C   0  0  0  0  0  0  0  0  0  0  0  0
    3.3579   -2.2284   -0.8884 C   0  0  0  0  0  0  0  0  0  0  0  0
    4.6357   -1.8125   -0.1928 C   0  0  0  0  0  0  0  0  0  0  0  0
    4.5181   -0.8595    1.0045 C   0  0  0  0  0  0  0  0  0  0  0  0
    3.9847    0.4832    0.7227 N   0  0  0  0  0  0  0  0  0  0  0  0
    4.7253    1.3358   -0.2102 C   0  0  0  0  0  0  0  0  0  0  0  0
    4.0895    1.4842   -1.5804 C   0  0  0  0  0  0  0  0  0  0  0  0
    3.0890    1.0056    1.6547 C   0  0  0  0  0  0  0  0  0  0  0  0
    2.9489    0.5090    2.7751 O   0  0  0  0  0  0  0  0  0  0  0  0
    2.2141    2.1721    1.2415 C   0  0  0  0  0  0  0  0  0  0  0  0
    1.0109    1.6724    0.4460 C   0  0  0  0  0  0  0  0  0  0  0  0
    0.3121    0.6889    1.2181 O   0  0  0  0  0  0  0  0  0  0  0  0
   -0.8324    0.2630    0.5986 C   0  0  0  0  0  0  0  0  0  0  0  0
   -2.0188    0.8832    1.0114 C   0  0  0  0  0  0  0  0  0  0  0  0
   -3.2583    0.5019    0.4881 C   0  0  0  0  0  0  0  0  0  0  0  0
   -4.5792    1.1697    0.9075 C   0  0  0  0  0  0  0  0  0  0  0  0
   -4.4066    2.2931    1.9552 C   0  0  0  0  0  0  0  0  0  0  0  0
   -5.2574    1.8003   -0.3282 C   0  0  0  0  0  0  0  0  0  0  0  0
   -5.5235    0.1143    1.5228 C   0  0  0  0  0  0  0  0  0  0  0  0
   -3.2573   -0.5437   -0.4562 C   0  0  0  0  0  0  0  0  0  0  0  0
   -2.0763   -1.1943   -0.8538 C   0  0  0  0  0  0  0  0  0  0  0  0
   -2.0438   -2.2126   -1.7738 O   0  0  0  0  0  0  0  0  0  0  0  0
   -3.2818   -2.7665   -2.1989 C   0  0  0  0  0  0  0  0  0  0  0  0
   -0.8343   -0.8020   -0.3155 C   0  0  0  0  0  0  0  0  0  0  0  0
    0.4465   -1.4840   -0.7609 C   0  0  0  0  0  0  0  0  0  0  0  0
    1.3292   -2.0576    0.3551 C   0  0  0  0  0  0  0  0  0  0  0  0
    2.4037   -2.8870   -0.1333 O   0  0  0  0  0  0  0  0  0  0  0  0
    4.0307   -1.8216   -2.8622 H   0  0  0  0  0  0  0  0  0  0  0  0
    2.3780   -2.6426   -2.7151 H   0  0  0  0  0  0  0  0  0  0  0  0
    5.1190   -2.7310    0.1667 H   0  0  0  0  0  0  0  0  0  0  0  0
    5.3319   -1.3799   -0.9222 H   0  0  0  0  0  0  0  0  0  0  0  0
    3.9202   -1.3523    1.7793 H   0  0  0  0  0  0  0  0  0  0  0  0
    5.5129   -0.7119    1.4443 H   0  0  0  0  0  0  0  0  0  0  0  0
    5.7378    0.9303   -0.3203 H   0  0  0  0  0  0  0  0  0  0  0  0
    4.8438    2.3268    0.2423 H   0  0  0  0  0  0  0  0  0  0  0  0
    3.1393    2.0194   -1.5329 H   0  0  0  0  0  0  0  0  0  0  0  0
    4.7520    2.0567   -2.2379 H   0  0  0  0  0  0  0  0  0  0  0  0
    3.9073    0.5168   -2.0488 H   0  0  0  0  0  0  0  0  0  0  0  0
    1.8705    2.6582    2.1629 H   0  0  0  0  0  0  0  0  0  0  0  0
    2.7719    2.9206    0.6758 H   0  0  0  0  0  0  0  0  0  0  0  0
    0.3498    2.5211    0.2307 H   0  0  0  0  0  0  0  0  0  0  0  0
    1.3372    1.2369   -0.5013 H   0  0  0  0  0  0  0  0  0  0  0  0
   -1.9359    1.6675    1.7585 H   0  0  0  0  0  0  0  0  0  0  0  0
   -3.7719    3.1032    1.5774 H   0  0  0  0  0  0  0  0  0  0  0  0
   -5.3732    2.7383    2.2200 H   0  0  0  0  0  0  0  0  0  0  0  0
   -3.9619    1.9147    2.8830 H   0  0  0  0  0  0  0  0  0  0  0  0
   -4.5989    2.5342   -0.8078 H   0  0  0  0  0  0  0  0  0  0  0  0
   -6.1845    2.3153   -0.0505 H   0  0  0  0  0  0  0  0  0  0  0  0
   -5.5213    1.0524   -1.0839 H   0  0  0  0  0  0  0  0  0  0  0  0
   -6.4595    0.5722    1.8635 H   0  0  0  0  0  0  0  0  0  0  0  0
   -5.0580   -0.3756    2.3863 H   0  0  0  0  0  0  0  0  0  0  0  0
   -5.7934   -0.6693    0.8064 H   0  0  0  0  0  0  0  0  0  0  0  0
   -4.2081   -0.8469   -0.8824 H   0  0  0  0  0  0  0  0  0  0  0  0
   -3.8662   -3.1359   -1.3497 H   0  0  0  0  0  0  0  0  0  0  0  0
   -3.0601   -3.6210   -2.8455 H   0  0  0  0  0  0  0  0  0  0  0  0
   -3.8520   -2.0430   -2.7904 H   0  0  0  0  0  0  0  0  0  0  0  0
    0.2317   -2.3072   -1.4518 H   0  0  0  0  0  0  0  0  0  0  0  0
    1.0109   -0.7648   -1.3644 H   0  0  0  0  0  0  0  0  0  0  0  0
    0.7183   -2.7046    0.9957 H   0  0  0  0  0  0  0  0  0  0  0  0
    1.7364   -1.2858    1.0057 H   0  0  0  0  0  0  0  0  0  0  0  0
  1  2  2  0
  2  3  1  0
  3  4  1  0
  4  5  1  0
  5  6  1  0
  6  7  1  0
  5  8  1  0
  8  9  2  0
  8 10  1  0
 10 11  1  0
 11 12  1  0
 12 13  1  0
 13 14  1  0
 14 15  2  0
 15 16  1  0
 16 17  1  0
 16 18  1  0
 16 19  1  0
 15 20  1  0
 20 21  2  0
 21 22  1  0
 22 23  1  0
 21 24  1  0
 24 25  1  0
 25 26  1  0
 26 27  1  0
 27  2  1  0
 24 13  2  0
  1 28  1  0
  1 29  1  0
  3 30  1  0
  3 31  1  0
  4 32  1  0
  4 33  1  0
  6 34  1  0
  6 35  1  0
  7 36  1  0
  7 37  1  0
  7 38  1  0
 10 39  1  0
 10 40  1  0
 11 41  1  0
 11 42  1  0
 14 43  1  0
 17 44  1  0
 17 45  1  0
 17 46  1  0
 18 47  1  0
 18 48  1  0
 18 49  1  0
 19 50  1  0
 19 51  1  0
 19 52  1  0
 20 53  1  0
 23 54  1  0
 23 55  1  0
 23 56  1  0
 25 57  1  0
 25 58  1  0
 26 59  1  0
 26 60  1  0
M  END
>  <smiles>
C=C1CCN(CC)C(=O)CCOc2cc(C(C)(C)C)cc(OC)c2CCO1

$$$$
