mol_49b56864438e
     RDKit          3D

 52 54  0  0  0  0  0  0  0  0999 V2000
   -1.5365   -0.5604   -3.3450 C   0  0  0  0  0  0  0  0  0  0  0  0
   -1.0407    0.0649   -2.2705 C   0  0  0  0  0  0  0  0  0  0  0  0
    0.2125    0.6482   -2.3464 O   0  0  0  0  0  0  0  0  0  0  0  0
    0.7103    1.3594   -1.2108 C   0  0  0  0  0  0  0  0  0  0  0  0
    1.9549    0.7237   -0.6232 C   0  0  0  0  0  0  0  0  0  0  0  0
    3.0363    1.5542   -0.2574 C   0  0  0  0  0  0  0  0  0  0  0  0
    4.1745    1.0344    0.3690 C   0  0  0  0  0  0  0  0  0  0  0  0
    5.2594    1.7683    0.7676 O   0  0  0  0  0  0  0  0  0  0  0  0
    5.2531    3.1597    0.4848 C   0  0  0  0  0  0  0  0  0  0  0  0
    4.2276   -0.3392    0.6230 C   0  0  0  0  0  0  0  0  0  0  0  0
    5.3310   -0.8793    1.2394 O   0  0  0  0  0  0  0  0  0  0  0  0
    3.1808   -1.1882    0.2497 C   0  0  0  0  0  0  0  0  0  0  0  0
    3.3536   -2.5230    0.5322 O   0  0  0  0  0  0  0  0  0  0  0  0
    3.1952   -3.3472   -0.6245 C   0  0  0  0  0  0  0  0  0  0  0  0
    2.0281   -0.6474   -0.3289 C   0  0  0  0  0  0  0  0  0  0  0  0
    0.9843   -1.4564   -0.6784 O   0  0  0  0  0  0  0  0  0  0  0  0
    0.0853   -1.6836    0.4159 C   0  0  0  0  0  0  0  0  0  0  0  0
   -1.2104   -2.2218   -0.1930 C   0  0  0  0  0  0  0  0  0  0  0  0
   -2.3302   -1.1797   -0.3626 C   0  0  0  0  0  0  0  0  0  0  0  0
   -2.9496   -0.9438    0.9603 N   0  0  0  0  0  0  0  0  0  0  0  0
   -3.8943    0.1835    0.9197 C   0  0  0  0  0  0  0  0  0  0  0  0
   -5.1218   -0.1097    0.0493 C   0  0  0  0  0  0  0  0  0  0  0  0
   -3.1201    1.4602    0.5345 C   0  0  0  0  0  0  0  0  0  0  0  0
   -4.0160    2.6875    0.3878 C   0  0  0  0  0  0  0  0  0  0  0  0
   -2.3336    1.3287   -0.7007 N   0  0  0  0  0  0  0  0  0  0  0  0
   -1.9193    0.1498   -1.0543 C   0  0  0  0  0  0  0  0  0  0  0  0
   -0.9461   -0.6237   -4.2535 H   0  0  0  0  0  0  0  0  0  0  0  0
   -2.5277   -0.9977   -3.3619 H   0  0  0  0  0  0  0  0  0  0  0  0
    0.0014    1.4948   -0.3928 H   0  0  0  0  0  0  0  0  0  0  0  0
    0.9519    2.3644   -1.5765 H   0  0  0  0  0  0  0  0  0  0  0  0
    2.9574    2.6179   -0.4621 H   0  0  0  0  0  0  0  0  0  0  0  0
    4.4387    3.6658    1.0136 H   0  0  0  0  0  0  0  0  0  0  0  0
    5.2005    3.3445   -0.5932 H   0  0  0  0  0  0  0  0  0  0  0  0
    6.1961    3.5795    0.8480 H   0  0  0  0  0  0  0  0  0  0  0  0
    5.1255   -1.8254    1.3553 H   0  0  0  0  0  0  0  0  0  0  0  0
    3.5073   -2.8463   -1.5483 H   0  0  0  0  0  0  0  0  0  0  0  0
    3.8321   -4.2273   -0.4918 H   0  0  0  0  0  0  0  0  0  0  0  0
    2.1619   -3.6967   -0.7035 H   0  0  0  0  0  0  0  0  0  0  0  0
   -0.0844   -0.7770    1.0092 H   0  0  0  0  0  0  0  0  0  0  0  0
    0.5253   -2.4503    1.0641 H   0  0  0  0  0  0  0  0  0  0  0  0
   -1.0030   -2.6835   -1.1671 H   0  0  0  0  0  0  0  0  0  0  0  0
   -1.5851   -3.0333    0.4456 H   0  0  0  0  0  0  0  0  0  0  0  0
   -3.0947   -1.6352   -1.0059 H   0  0  0  0  0  0  0  0  0  0  0  0
   -3.4409   -1.7867    1.2564 H   0  0  0  0  0  0  0  0  0  0  0  0
   -4.2627    0.3194    1.9448 H   0  0  0  0  0  0  0  0  0  0  0  0
   -5.9016    0.6411    0.2153 H   0  0  0  0  0  0  0  0  0  0  0  0
   -4.8856   -0.1127   -1.0194 H   0  0  0  0  0  0  0  0  0  0  0  0
   -5.5574   -1.0823    0.3045 H   0  0  0  0  0  0  0  0  0  0  0  0
   -2.4074    1.6792    1.3420 H   0  0  0  0  0  0  0  0  0  0  0  0
   -3.4085    3.5886    0.2468 H   0  0  0  0  0  0  0  0  0  0  0  0
   -4.6326    2.8331    1.2805 H   0  0  0  0  0  0  0  0  0  0  0  0
   -4.6746    2.6072   -0.4834 H   0  0  0  0  0  0  0  0  0  0  0  0
  1  2  2  0
  2  3  1  0
  3  4  1  0
  4  5  1  0
  5  6  1  0
  6  7  2  0
  7  8  1  0
  8  9  1  0
  7 10  1  0
 10 11  1  0
 10 12  2  0
 12 13  1  0
 13 14  1  0
 12 15  1  0
 15 16  1  0
 16 17  1  0
 17 18  1  0
 18 19  1  0
 19 20  1  0
 20 21  1  0
 21 22  1  0
 21 23  1  0
 23 24  1  0
 23 25  1  0
 25 26  2  0
 26  2  1  0
 15  5  2  0
 26 19  1  0
  1 27  1  0
  1 28  1  0
  4 29  1  0
  4 30  1  0
  6 31  1  0
  9 32  1  0
  9 33  1  0
  9 34  1  0
 11 35  1  0
 14 36  1  0
 14 37  1  0
 14 38  1  0
 17 39  1  0
 17 40  1  0
 18 41  1  0
 18 42  1  0
 19 43  1  0
 20 44  1  0
 21 45  1  0
 22 46  1  0
 22 47  1  0
 22 48  1  0
 23 49  1  0
 24 50  1  0
 24 51  1  0
 24 52  1  0
M  END
>  <smiles>
C=C1OCc2cc(OC)c(O)c(OC)c2OCCC2NC(C)C(C)N=C12

$$$$
