mol_f3962fe66aad
     RDKit          3D

 53 55  0  0  0  0  0  0  0  0999 V2000
   -4.0297   -2.2452   -0.7347 C   0  0  0  0  0  0  0  0  0  0  0  0
   -4.3901   -1.4387    0.5071 C   0  0  0  0  0  0  0  0  0  0  0  0
   -3.2058   -0.6133    1.0548 C   0  0  0  0  0  0  0  0  0  0  0  0
   -3.5764    0.0267    2.3991 C   0  0  0  0  0  0  0  0  0  0  0  0
   -2.7097    0.4510    0.0774 C   0  0  0  0  0  0  0  0  0  0  0  0
   -3.6046    1.4429   -0.3731 C   0  0  0  0  0  0  0  0  0  0  0  0
   -3.2111    2.4298   -1.2831 C   0  0  0  0  0  0  0  0  0  0  0  0
   -4.1780    3.4898   -1.7204 C   0  0  0  0  0  0  0  0  0  0  0  0
   -1.8905    2.4449   -1.7342 C   0  0  0  0  0  0  0  0  0  0  0  0
   -0.9788    1.4769   -1.2989 C   0  0  0  0  0  0  0  0  0  0  0  0
   -1.3735    0.4796   -0.3924 C   0  0  0  0  0  0  0  0  0  0  0  0
   -0.3516   -0.5462    0.0453 C   0  0  0  0  0  0  0  0  0  0  0  0
    1.0262   -0.3721   -0.4369 N   0  0  0  0  0  0  0  0  0  0  0  0
    1.9506   -1.2948    0.0690 C   0  0  0  0  0  0  0  0  0  0  0  0
    1.5824   -2.2235    0.7963 O   0  0  0  0  0  0  0  0  0  0  0  0
    3.4299   -1.1357   -0.2942 C   0  0  0  0  0  0  0  0  0  0  0  0
    4.2579   -2.3584    0.1328 C   0  0  0  0  0  0  0  0  0  0  0  0
    5.6756   -1.8240    0.2015 C   0  0  0  0  0  0  0  0  0  0  0  0
    5.5002   -0.4806    0.8932 C   0  0  0  0  0  0  0  0  0  0  0  0
    4.1524    0.0583    0.3755 C   0  0  0  0  0  0  0  0  0  0  0  0
    4.4507    1.0285   -0.6456 O   0  0  0  0  0  0  0  0  0  0  0  0
    3.3826    0.7408    1.5152 C   0  0  0  0  0  0  0  0  0  0  0  0
    3.1464    1.9396    1.5715 O   0  0  0  0  0  0  0  0  0  0  0  0
    3.0189   -0.0784    2.5149 O   0  0  0  0  0  0  0  0  0  0  0  0
    1.3037    0.6164   -1.3618 C   0  0  0  0  0  0  0  0  0  0  0  0
    0.3946    1.4974   -1.7916 C   0  0  0  0  0  0  0  0  0  0  0  0
   -4.8784   -2.8670   -1.0372 H   0  0  0  0  0  0  0  0  0  0  0  0
   -3.7763   -1.5955   -1.5777 H   0  0  0  0  0  0  0  0  0  0  0  0
   -3.1793   -2.9064   -0.5397 H   0  0  0  0  0  0  0  0  0  0  0  0
   -5.2503   -0.7977    0.2816 H   0  0  0  0  0  0  0  0  0  0  0  0
   -4.7231   -2.1406    1.2823 H   0  0  0  0  0  0  0  0  0  0  0  0
   -2.4042   -1.3278    1.2687 H   0  0  0  0  0  0  0  0  0  0  0  0
   -2.7355    0.6005    2.8045 H   0  0  0  0  0  0  0  0  0  0  0  0
   -4.4325    0.7042    2.3098 H   0  0  0  0  0  0  0  0  0  0  0  0
   -3.8389   -0.7435    3.1326 H   0  0  0  0  0  0  0  0  0  0  0  0
   -4.6314    1.4477   -0.0108 H   0  0  0  0  0  0  0  0  0  0  0  0
   -5.1997    3.0971   -1.7524 H   0  0  0  0  0  0  0  0  0  0  0  0
   -3.9372    3.8482   -2.7268 H   0  0  0  0  0  0  0  0  0  0  0  0
   -4.1449    4.3354   -1.0266 H   0  0  0  0  0  0  0  0  0  0  0  0
   -1.5713    3.2183   -2.4295 H   0  0  0  0  0  0  0  0  0  0  0  0
   -0.3013   -0.5456    1.1420 H   0  0  0  0  0  0  0  0  0  0  0  0
   -0.6818   -1.5387   -0.2875 H   0  0  0  0  0  0  0  0  0  0  0  0
    3.5048   -1.0706   -1.3877 H   0  0  0  0  0  0  0  0  0  0  0  0
    3.9576   -2.7344    1.1183 H   0  0  0  0  0  0  0  0  0  0  0  0
    4.1645   -3.1830   -0.5812 H   0  0  0  0  0  0  0  0  0  0  0  0
    6.3469   -2.4896    0.7515 H   0  0  0  0  0  0  0  0  0  0  0  0
    6.0811   -1.6836   -0.8075 H   0  0  0  0  0  0  0  0  0  0  0  0
    5.4842   -0.6387    1.9781 H   0  0  0  0  0  0  0  0  0  0  0  0
    6.3406    0.1846    0.6674 H   0  0  0  0  0  0  0  0  0  0  0  0
    4.5273    1.8935   -0.1940 H   0  0  0  0  0  0  0  0  0  0  0  0
    2.5294    0.4883    3.1477 H   0  0  0  0  0  0  0  0  0  0  0  0
    2.3068    0.6804   -1.7671 H   0  0  0  0  0  0  0  0  0  0  0  0
    0.6707    2.2532   -2.5197 H   0  0  0  0  0  0  0  0  0  0  0  0
  1  2  1  0
  2  3  1  0
  3  4  1  0
  3  5  1  0
  5  6  1  0
  6  7  2  0
  7  8  1  0
  7  9  1  0
  9 10  2  0
 10 11  1  0
 11 12  1  0
 12 13  1  0
 13 14  1  0
 14 15  2  0
 14 16  1  0
 16 17  1  0
 17 18  1  0
 18 19  1  0
 19 20  1  0
 20 21  1  0
 20 22  1  0
 22 23  2  0
 22 24  1  0
 13 25  1  0
 25 26  2  0
 11  5  2  0
 20 16  1  0
 26 10  1  0
  1 27  1  0
  1 28  1  0
  1 29  1  0
  2 30  1  0
  2 31  1  0
  3 32  1  0
  4 33  1  0
  4 34  1  0
  4 35  1  0
  6 36  1  0
  8 37  1  0
  8 38  1  0
  8 39  1  0
  9 40  1  0
 12 41  1  0
 12 42  1  0
 16 43  1  0
 17 44  1  0
 17 45  1  0
 18 46  1  0
 18 47  1  0
 19 48  1  0
 19 49  1  0
 21 50  1  0
 24 51  1  0
 25 52  1  0
 26 53  1  0
M  END
>  <smiles>
CCC(C)c1cc(C)cc2c1CN(C(=O)C1CCCC1(O)C(=O)O)C=C2

$$$$
