mol_14a17e4277d6
     RDKit          3D

 49 51  0  0  0  0  0  0  0  0999 V2000
   -6.4827   -1.2227    1.5774 O   0  0  0  0  0  0  0  0  0  0  0  0
   -5.7343   -0.2322    1.0074 C   0  0  0  0  0  0  0  0  0  0  0  0
   -4.3803   -0.1048    1.3366 C   0  0  0  0  0  0  0  0  0  0  0  0
   -3.6189    0.9072    0.7530 C   0  0  0  0  0  0  0  0  0  0  0  0
   -2.2949    1.1538    0.9817 O   0  0  0  0  0  0  0  0  0  0  0  0
   -1.5682    0.1988    1.7483 C   0  0  0  0  0  0  0  0  0  0  0  0
   -0.0862    0.5819    1.7920 C   0  0  0  0  0  0  0  0  0  0  0  0
    0.6347    0.3604    0.4524 C   0  0  0  0  0  0  0  0  0  0  0  0
    2.1654    0.5296    0.6356 C   0  0  0  0  0  0  0  0  0  0  0  0
    2.9470    0.4298   -0.6176 N   0  0  0  0  0  0  0  0  0  0  0  0
    3.0564   -0.9466   -1.1424 C   0  0  0  0  0  0  0  0  0  0  0  0
    3.9735   -1.8769   -0.3274 C   0  0  0  0  0  0  0  0  0  0  0  0
    5.4110   -1.5124   -0.4363 C   0  0  0  0  0  0  0  0  0  0  0  0
    6.1611   -0.4493    0.0216 C   0  0  0  0  0  0  0  0  0  0  0  0
    7.4895   -0.6835   -0.4060 C   0  0  0  0  0  0  0  0  0  0  0  0
    7.4659   -1.8740   -1.0932 C   0  0  0  0  0  0  0  0  0  0  0  0
    6.2085   -2.3857   -1.1161 O   0  0  0  0  0  0  0  0  0  0  0  0
    2.3345    1.3402   -1.6116 C   0  0  0  0  0  0  0  0  0  0  0  0
    0.8163    1.1608   -1.7667 C   0  0  0  0  0  0  0  0  0  0  0  0
    0.1480    1.3068   -0.5093 O   0  0  0  0  0  0  0  0  0  0  0  0
   -4.2239    1.7856   -0.1471 C   0  0  0  0  0  0  0  0  0  0  0  0
   -5.5757    1.6531   -0.4729 C   0  0  0  0  0  0  0  0  0  0  0  0
   -6.3515    0.6356    0.1029 C   0  0  0  0  0  0  0  0  0  0  0  0
   -7.8095    0.4890   -0.2460 C   0  0  0  0  0  0  0  0  0  0  0  0
   -8.2359    1.4250   -1.1472 F   0  0  0  0  0  0  0  0  0  0  0  0
   -8.6388    0.6265    0.8268 F   0  0  0  0  0  0  0  0  0  0  0  0
   -8.1109   -0.7127   -0.8145 F   0  0  0  0  0  0  0  0  0  0  0  0
   -5.9340   -1.7356    2.1943 H   0  0  0  0  0  0  0  0  0  0  0  0
   -3.9387   -0.7920    2.0480 H   0  0  0  0  0  0  0  0  0  0  0  0
   -1.6758   -0.8059    1.3216 H   0  0  0  0  0  0  0  0  0  0  0  0
   -1.9512    0.1998    2.7760 H   0  0  0  0  0  0  0  0  0  0  0  0
   -0.0024    1.6380    2.0770 H   0  0  0  0  0  0  0  0  0  0  0  0
    0.3997   -0.0235    2.5662 H   0  0  0  0  0  0  0  0  0  0  0  0
    0.4075   -0.6513    0.0945 H   0  0  0  0  0  0  0  0  0  0  0  0
    2.3584    1.5284    1.0505 H   0  0  0  0  0  0  0  0  0  0  0  0
    2.5386   -0.1755    1.3854 H   0  0  0  0  0  0  0  0  0  0  0  0
    3.4575   -0.9076   -2.1645 H   0  0  0  0  0  0  0  0  0  0  0  0
    2.0682   -1.4142   -1.2205 H   0  0  0  0  0  0  0  0  0  0  0  0
    3.8376   -2.8994   -0.7031 H   0  0  0  0  0  0  0  0  0  0  0  0
    3.6805   -1.9065    0.7270 H   0  0  0  0  0  0  0  0  0  0  0  0
    5.7856    0.3942    0.5845 H   0  0  0  0  0  0  0  0  0  0  0  0
    8.3563   -0.0609   -0.2372 H   0  0  0  0  0  0  0  0  0  0  0  0
    8.2181   -2.4614   -1.6006 H   0  0  0  0  0  0  0  0  0  0  0  0
    2.5289    2.3671   -1.2753 H   0  0  0  0  0  0  0  0  0  0  0  0
    2.8299    1.2426   -2.5847 H   0  0  0  0  0  0  0  0  0  0  0  0
    0.4224    1.9301   -2.4385 H   0  0  0  0  0  0  0  0  0  0  0  0
    0.5644    0.1862   -2.1998 H   0  0  0  0  0  0  0  0  0  0  0  0
   -3.6327    2.5784   -0.6016 H   0  0  0  0  0  0  0  0  0  0  0  0
   -6.0191    2.3518   -1.1808 H   0  0  0  0  0  0  0  0  0  0  0  0
  1  2  1  0
  2  3  1  0
  3  4  2  0
  4  5  1  0
  5  6  1  0
  6  7  1  0
  7  8  1  0
  8  9  1  0
  9 10  1  0
 10 11  1  0
 11 12  1  0
 12 13  1  0
 13 14  2  0
 14 15  1  0
 15 16  2  0
 16 17  1  0
 10 18  1  0
 18 19  1  0
 19 20  1  0
  4 21  1  0
 21 22  2  0
 22 23  1  0
 23 24  1  0
 24 25  1  0
 24 26  1  0
 24 27  1  0
 23  2  2  0
 20  8  1  0
 17 13  1  0
  1 28  1  0
  3 29  1  0
  6 30  1  0
  6 31  1  0
  7 32  1  0
  7 33  1  0
  8 34  1  0
  9 35  1  0
  9 36  1  0
 11 37  1  0
 11 38  1  0
 12 39  1  0
 12 40  1  0
 14 41  1  0
 15 42  1  0
 16 43  1  0
 18 44  1  0
 18 45  1  0
 19 46  1  0
 19 47  1  0
 21 48  1  0
 22 49  1  0
M  END
>  <smiles>
Oc1cc(OCCC2CN(CCc3ccco3)CCO2)ccc1C(F)(F)F

$$$$
