mol_5fc5442677ad
     RDKit          3D

 49 51  0  0  0  0  0  0  0  0999 V2000
   -0.5825    1.9577    1.7235 C   0  0  0  0  0  0  0  0  0  0  0  0
   -1.6276    1.5939    0.6568 C   0  0  0  0  0  0  0  0  0  0  0  0
   -1.6405    2.6686   -0.4413 C   0  0  0  0  0  0  0  0  0  0  0  0
   -2.9186    1.6985    1.2894 O   0  0  0  0  0  0  0  0  0  0  0  0
   -3.3149    0.5097    1.9518 C   0  0  0  0  0  0  0  0  0  0  0  0
   -3.4785   -0.5240    0.8918 C   0  0  0  0  0  0  0  0  0  0  0  0
   -4.5840   -1.3829    0.8559 C   0  0  0  0  0  0  0  0  0  0  0  0
   -4.6994   -2.3032   -0.1764 C   0  0  0  0  0  0  0  0  0  0  0  0
   -5.7649   -3.1165   -0.2069 F   0  0  0  0  0  0  0  0  0  0  0  0
   -3.7311   -2.3679   -1.1720 C   0  0  0  0  0  0  0  0  0  0  0  0
   -3.8837   -3.2669   -2.1901 O   0  0  0  0  0  0  0  0  0  0  0  0
   -2.6223   -1.5212   -1.1277 C   0  0  0  0  0  0  0  0  0  0  0  0
   -2.4644   -0.6000   -0.0779 C   0  0  0  0  0  0  0  0  0  0  0  0
   -1.3365    0.2562    0.0395 N   0  0  0  0  0  0  0  0  0  0  0  0
   -0.0612   -0.0695   -0.4294 C   0  0  0  0  0  0  0  0  0  0  0  0
    0.5066   -1.2653   -0.6565 C   0  0  0  0  0  0  0  0  0  0  0  0
    1.8988   -1.5455   -1.1612 C   0  0  0  0  0  0  0  0  0  0  0  0
    2.8482   -0.3655   -1.2269 C   0  0  0  0  0  0  0  0  0  0  0  0
    2.8376    0.4260   -2.3922 C   0  0  0  0  0  0  0  0  0  0  0  0
    3.6541    1.5496   -2.5081 C   0  0  0  0  0  0  0  0  0  0  0  0
    4.4929    1.9055   -1.4593 C   0  0  0  0  0  0  0  0  0  0  0  0
    4.5198    1.1347   -0.2977 C   0  0  0  0  0  0  0  0  0  0  0  0
    3.7104   -0.0088   -0.1649 C   0  0  0  0  0  0  0  0  0  0  0  0
    3.7953   -0.7985    1.1229 C   0  0  0  0  0  0  0  0  0  0  0  0
    2.6633   -0.5145    2.0739 C   0  0  0  0  0  0  0  0  0  0  0  0
    2.3065    0.5777    2.4850 O   0  0  0  0  0  0  0  0  0  0  0  0
    2.0440   -1.6361    2.4963 O   0  0  0  0  0  0  0  0  0  0  0  0
   -0.8819    2.8602    2.2691 H   0  0  0  0  0  0  0  0  0  0  0  0
    0.4059    2.1407    1.2911 H   0  0  0  0  0  0  0  0  0  0  0  0
   -0.4820    1.1595    2.4670 H   0  0  0  0  0  0  0  0  0  0  0  0
   -1.9013    3.6489   -0.0256 H   0  0  0  0  0  0  0  0  0  0  0  0
   -0.6761    2.7590   -0.9508 H   0  0  0  0  0  0  0  0  0  0  0  0
   -2.4007    2.4379   -1.1971 H   0  0  0  0  0  0  0  0  0  0  0  0
   -4.2666    0.7142    2.4525 H   0  0  0  0  0  0  0  0  0  0  0  0
   -2.5884    0.2032    2.7118 H   0  0  0  0  0  0  0  0  0  0  0  0
   -5.3623   -1.3338    1.6106 H   0  0  0  0  0  0  0  0  0  0  0  0
   -3.1573   -3.1529   -2.8239 H   0  0  0  0  0  0  0  0  0  0  0  0
   -1.8874   -1.5566   -1.9248 H   0  0  0  0  0  0  0  0  0  0  0  0
    0.5427    0.8231   -0.5807 H   0  0  0  0  0  0  0  0  0  0  0  0
   -0.0661   -2.1645   -0.4434 H   0  0  0  0  0  0  0  0  0  0  0  0
    1.8140   -1.9874   -2.1631 H   0  0  0  0  0  0  0  0  0  0  0  0
    2.3362   -2.3413   -0.5494 H   0  0  0  0  0  0  0  0  0  0  0  0
    2.1756    0.1718   -3.2183 H   0  0  0  0  0  0  0  0  0  0  0  0
    3.6290    2.1499   -3.4137 H   0  0  0  0  0  0  0  0  0  0  0  0
    5.1255    2.7853   -1.5421 H   0  0  0  0  0  0  0  0  0  0  0  0
    5.1796    1.4380    0.5135 H   0  0  0  0  0  0  0  0  0  0  0  0
    3.8494   -1.8699    0.9013 H   0  0  0  0  0  0  0  0  0  0  0  0
    4.7281   -0.5747    1.6556 H   0  0  0  0  0  0  0  0  0  0  0  0
    1.3166   -1.3020    3.0622 H   0  0  0  0  0  0  0  0  0  0  0  0
  1  2  1  0
  2  3  1  0
  2  4  1  0
  4  5  1  0
  5  6  1  0
  6  7  1  0
  7  8  2  0
  8  9  1  0
  8 10  1  0
 10 11  1  0
 10 12  2  0
 12 13  1  0
 13 14  1  0
 14 15  1  0
 15 16  2  3
 16 17  1  0
 17 18  1  0
 18 19  2  0
 19 20  1  0
 20 21  2  0
 21 22  1  0
 22 23  2  0
 23 24  1  0
 24 25  1  0
 25 26  2  0
 25 27  1  0
 14  2  1  0
 23 18  1  0
 13  6  2  0
  1 28  1  0
  1 29  1  0
  1 30  1  0
  3 31  1  0
  3 32  1  0
  3 33  1  0
  5 34  1  0
  5 35  1  0
  7 36  1  0
 11 37  1  0
 12 38  1  0
 15 39  1  0
 16 40  1  0
 17 41  1  0
 17 42  1  0
 19 43  1  0
 20 44  1  0
 21 45  1  0
 22 46  1  0
 24 47  1  0
 24 48  1  0
 27 49  1  0
M  END
>  <smiles>
CC1(C)OCc2cc(F)c(O)cc2N1C=CCc1ccccc1CC(=O)O

$$$$
