mol_85d2a29883fa
     RDKit          3D

 42 43  0  0  0  0  0  0  0  0999 V2000
   -1.8748    3.3134    0.9127 C   0  0  0  0  0  0  0  0  0  0  0  0
   -1.7626    1.9670    0.2602 C   0  0  0  0  0  0  0  0  0  0  0  0
   -0.6454    1.6480   -0.5146 C   0  0  0  0  0  0  0  0  0  0  0  0
   -0.5411    0.4001   -1.1428 C   0  0  0  0  0  0  0  0  0  0  0  0
    0.6958    0.0630   -1.9377 C   0  0  0  0  0  0  0  0  0  0  0  0
    1.8011   -0.2312   -1.0545 N   0  0  0  0  0  0  0  0  0  0  0  0
    2.8774    0.6182   -0.9260 C   0  0  0  0  0  0  0  0  0  0  0  0
    2.9817    1.6761   -1.5367 O   0  0  0  0  0  0  0  0  0  0  0  0
    3.9299    0.2110    0.0461 C   0  0  0  0  0  0  0  0  0  0  0  0
    4.1956   -1.1332    0.3389 C   0  0  0  0  0  0  0  0  0  0  0  0
    5.1950   -1.4636    1.2578 C   0  0  0  0  0  0  0  0  0  0  0  0
    5.9351   -0.4578    1.8794 C   0  0  0  0  0  0  0  0  0  0  0  0
    5.6855    0.8807    1.5793 C   0  0  0  0  0  0  0  0  0  0  0  0
    4.6887    1.2152    0.6612 C   0  0  0  0  0  0  0  0  0  0  0  0
   -1.5809   -0.5323   -0.9956 C   0  0  0  0  0  0  0  0  0  0  0  0
   -2.7307   -0.2307   -0.2460 C   0  0  0  0  0  0  0  0  0  0  0  0
   -3.8919   -1.2178   -0.0639 C   0  0  0  0  0  0  0  0  0  0  0  0
   -3.9204   -2.3433   -1.1120 C   0  0  0  0  0  0  0  0  0  0  0  0
   -5.1269   -0.4891   -0.2795 O   0  0  0  0  0  0  0  0  0  0  0  0
   -3.8488   -1.8667    1.3520 C   0  0  0  0  0  0  0  0  0  0  0  0
   -4.8805   -2.7276    1.5372 F   0  0  0  0  0  0  0  0  0  0  0  0
   -2.7091   -2.5825    1.5303 F   0  0  0  0  0  0  0  0  0  0  0  0
   -3.9103   -0.9524    2.3481 F   0  0  0  0  0  0  0  0  0  0  0  0
   -2.7977    1.0315    0.3788 C   0  0  0  0  0  0  0  0  0  0  0  0
   -2.3744    4.0153    0.2380 H   0  0  0  0  0  0  0  0  0  0  0  0
   -2.4465    3.2490    1.8445 H   0  0  0  0  0  0  0  0  0  0  0  0
   -0.8857    3.7092    1.1662 H   0  0  0  0  0  0  0  0  0  0  0  0
    0.1641    2.3701   -0.6249 H   0  0  0  0  0  0  0  0  0  0  0  0
    0.5286   -0.8297   -2.5504 H   0  0  0  0  0  0  0  0  0  0  0  0
    0.9378    0.8841   -2.6213 H   0  0  0  0  0  0  0  0  0  0  0  0
    1.7012   -1.0186   -0.4311 H   0  0  0  0  0  0  0  0  0  0  0  0
    3.6570   -1.9350   -0.1566 H   0  0  0  0  0  0  0  0  0  0  0  0
    5.4039   -2.5067    1.4832 H   0  0  0  0  0  0  0  0  0  0  0  0
    6.7140   -0.7174    2.5924 H   0  0  0  0  0  0  0  0  0  0  0  0
    6.2684    1.6646    2.0564 H   0  0  0  0  0  0  0  0  0  0  0  0
    4.5015    2.2614    0.4272 H   0  0  0  0  0  0  0  0  0  0  0  0
   -1.4704   -1.5008   -1.4778 H   0  0  0  0  0  0  0  0  0  0  0  0
   -3.0704   -3.0266   -1.0142 H   0  0  0  0  0  0  0  0  0  0  0  0
   -4.8384   -2.9357   -1.0170 H   0  0  0  0  0  0  0  0  0  0  0  0
   -3.9253   -1.9360   -2.1302 H   0  0  0  0  0  0  0  0  0  0  0  0
   -4.9585    0.1674   -0.9789 H   0  0  0  0  0  0  0  0  0  0  0  0
   -3.6713    1.2895    0.9797 H   0  0  0  0  0  0  0  0  0  0  0  0
  1  2  1  0
  2  3  2  0
  3  4  1  0
  4  5  1  0
  5  6  1  0
  6  7  1  0
  7  8  2  0
  7  9  1  0
  9 10  2  0
 10 11  1  0
 11 12  2  0
 12 13  1  0
 13 14  2  0
  4 15  2  0
 15 16  1  0
 16 17  1  0
 17 18  1  0
 17 19  1  0
 17 20  1  0
 20 21  1  0
 20 22  1  0
 20 23  1  0
 16 24  2  0
 24  2  1  0
 14  9  1  0
  1 25  1  0
  1 26  1  0
  1 27  1  0
  3 28  1  0
  5 29  1  0
  5 30  1  0
  6 31  1  0
 10 32  1  0
 11 33  1  0
 12 34  1  0
 13 35  1  0
 14 36  1  0
 15 37  1  0
 18 38  1  0
 18 39  1  0
 18 40  1  0
 19 41  1  0
 24 42  1  0
M  END
>  <smiles>
Cc1cc(CNC(=O)c2ccccc2)cc(C(C)(O)C(F)(F)F)c1

$$$$
