mol_e9095a3baeb8
     RDKit          3D

 46 46  0  0  0  0  0  0  0  0999 V2000
    1.0274   -3.5638    0.8950 C   0  0  0  0  0  0  0  0  0  0  0  0
    1.2329   -2.4606   -0.1361 C   0  0  0  0  0  0  0  0  0  0  0  0
    1.0870   -1.0505    0.4634 C   0  0  0  0  0  0  0  0  0  0  0  0
    1.4039    0.0617   -0.5585 C   0  0  0  0  0  0  0  0  0  0  0  0
    2.9064    0.2170   -0.8266 C   0  0  0  0  0  0  0  0  0  0  0  0
    3.2303    1.2814   -1.8931 C   0  0  0  0  0  0  0  0  0  0  0  0
    4.7290    1.2622   -2.2052 C   0  0  0  0  0  0  0  0  0  0  0  0
    2.8126    2.6889   -1.4640 C   0  0  0  0  0  0  0  0  0  0  0  0
   -0.3088   -0.8309    1.0643 C   0  0  0  0  0  0  0  0  0  0  0  0
   -0.4396   -0.7434    2.2805 O   0  0  0  0  0  0  0  0  0  0  0  0
   -1.3264   -0.8133    0.1357 N   0  0  0  0  0  0  0  0  0  0  0  0
   -2.7056   -0.5432    0.2987 C   0  0  0  0  0  0  0  0  0  0  0  0
   -3.5093   -1.0874   -0.7224 C   0  0  0  0  0  0  0  0  0  0  0  0
   -4.8914   -0.9488   -0.7041 C   0  0  0  0  0  0  0  0  0  0  0  0
   -5.6227   -1.5000   -1.6815 F   0  0  0  0  0  0  0  0  0  0  0  0
   -5.5186   -0.2589    0.3133 C   0  0  0  0  0  0  0  0  0  0  0  0
   -4.7404    0.3209    1.3118 C   0  0  0  0  0  0  0  0  0  0  0  0
   -3.3252    0.2164    1.3147 C   0  0  0  0  0  0  0  0  0  0  0  0
   -2.6195    0.9962    2.4083 C   0  0  0  0  0  0  0  0  0  0  0  0
   -1.5736    1.9762    1.9333 C   0  0  0  0  0  0  0  0  0  0  0  0
   -1.2730    2.2744    0.7883 O   0  0  0  0  0  0  0  0  0  0  0  0
   -0.9666    2.6028    2.9669 O   0  0  0  0  0  0  0  0  0  0  0  0
    1.2105   -4.5422    0.4392 H   0  0  0  0  0  0  0  0  0  0  0  0
    1.7180   -3.4480    1.7363 H   0  0  0  0  0  0  0  0  0  0  0  0
    0.0046   -3.5646    1.2838 H   0  0  0  0  0  0  0  0  0  0  0  0
    2.2361   -2.5823   -0.5587 H   0  0  0  0  0  0  0  0  0  0  0  0
    0.5269   -2.6110   -0.9608 H   0  0  0  0  0  0  0  0  0  0  0  0
    1.7953   -0.9527    1.2980 H   0  0  0  0  0  0  0  0  0  0  0  0
    1.0119    1.0101   -0.1744 H   0  0  0  0  0  0  0  0  0  0  0  0
    0.8830   -0.1333   -1.5042 H   0  0  0  0  0  0  0  0  0  0  0  0
    3.3160   -0.7425   -1.1618 H   0  0  0  0  0  0  0  0  0  0  0  0
    3.4184    0.4668    0.1115 H   0  0  0  0  0  0  0  0  0  0  0  0
    2.6924    1.0298   -2.8158 H   0  0  0  0  0  0  0  0  0  0  0  0
    5.0411    0.2732   -2.5571 H   0  0  0  0  0  0  0  0  0  0  0  0
    4.9728    1.9859   -2.9903 H   0  0  0  0  0  0  0  0  0  0  0  0
    5.3229    1.5102   -1.3189 H   0  0  0  0  0  0  0  0  0  0  0  0
    1.7259    2.7711   -1.3674 H   0  0  0  0  0  0  0  0  0  0  0  0
    3.2633    2.9615   -0.5038 H   0  0  0  0  0  0  0  0  0  0  0  0
    3.1265    3.4303   -2.2068 H   0  0  0  0  0  0  0  0  0  0  0  0
   -1.0655   -1.1289   -0.7896 H   0  0  0  0  0  0  0  0  0  0  0  0
   -3.0765   -1.6582   -1.5390 H   0  0  0  0  0  0  0  0  0  0  0  0
   -6.5992   -0.1627    0.3196 H   0  0  0  0  0  0  0  0  0  0  0  0
   -5.2511    0.8832    2.0931 H   0  0  0  0  0  0  0  0  0  0  0  0
   -3.3560    1.6106    2.9445 H   0  0  0  0  0  0  0  0  0  0  0  0
   -2.2150    0.3096    3.1545 H   0  0  0  0  0  0  0  0  0  0  0  0
   -0.3112    3.1866    2.5332 H   0  0  0  0  0  0  0  0  0  0  0  0
  1  2  1  0
  2  3  1  0
  3  4  1  0
  4  5  1  0
  5  6  1  0
  6  7  1  0
  6  8  1  0
  3  9  1  0
  9 10  2  0
  9 11  1  0
 11 12  1  0
 12 13  1  0
 13 14  2  0
 14 15  1  0
 14 16  1  0
 16 17  2  0
 17 18  1  0
 18 19  1  0
 19 20  1  0
 20 21  2  0
 20 22  1  0
 18 12  2  0
  1 23  1  0
  1 24  1  0
  1 25  1  0
  2 26  1  0
  2 27  1  0
  3 28  1  0
  4 29  1  0
  4 30  1  0
  5 31  1  0
  5 32  1  0
  6 33  1  0
  7 34  1  0
  7 35  1  0
  7 36  1  0
  8 37  1  0
  8 38  1  0
  8 39  1  0
 11 40  1  0
 13 41  1  0
 16 42  1  0
 17 43  1  0
 19 44  1  0
 19 45  1  0
 22 46  1  0
M  END
>  <smiles>
CCC(CCC(C)C)C(=O)Nc1cc(F)ccc1CC(=O)O

$$$$
