mol_751fe0185b81
     RDKit          3D

 55 57  0  0  0  0  0  0  0  0999 V2000
    4.2492   -2.1552    0.3750 C   0  0  0  0  0  0  0  0  0  0  0  0
    4.2748   -0.6892   -0.1143 C   0  0  0  0  0  0  0  0  0  0  0  0
    5.4485    0.0083    0.6098 C   0  0  0  0  0  0  0  0  0  0  0  0
    4.5534   -0.7147   -1.6493 C   0  0  0  0  0  0  0  0  0  0  0  0
    3.7824    0.3228   -2.4661 C   0  0  0  0  0  0  0  0  0  0  0  0
    3.6320    1.6347   -1.7217 C   0  0  0  0  0  0  0  0  0  0  0  0
    2.8800    1.4609   -0.4031 C   0  0  0  0  0  0  0  0  0  0  0  0
    2.9100    0.0247    0.1710 C   0  0  0  0  0  0  0  0  0  0  0  0
    2.4902    0.0244    1.6652 C   0  0  0  0  0  0  0  0  0  0  0  0
    1.0980    0.6022    1.9403 C   0  0  0  0  0  0  0  0  0  0  0  0
   -0.0271   -0.2375    1.3655 C   0  0  0  0  0  0  0  0  0  0  0  0
    0.0875   -1.4227    1.0730 O   0  0  0  0  0  0  0  0  0  0  0  0
   -1.2055    0.4541    1.2362 N   0  0  0  0  0  0  0  0  0  0  0  0
   -2.4285   -0.1683    0.7512 C   0  0  0  0  0  0  0  0  0  0  0  0
   -2.3650   -0.4744   -0.7583 C   0  0  0  0  0  0  0  0  0  0  0  0
   -3.7325   -0.7635   -1.4079 C   0  0  0  0  0  0  0  0  0  0  0  0
   -4.8511   -0.8307   -0.3727 C   0  0  0  0  0  0  0  0  0  0  0  0
   -6.2674   -0.8114   -0.9523 C   0  0  0  0  0  0  0  0  0  0  0  0
   -6.7023    0.6494   -0.8241 C   0  0  0  0  0  0  0  0  0  0  0  0
   -6.0233    1.1059    0.4590 C   0  0  0  0  0  0  0  0  0  0  0  0
   -4.7877    0.3556    0.4594 N   0  0  0  0  0  0  0  0  0  0  0  0
   -3.6168    0.7661    1.0524 C   0  0  0  0  0  0  0  0  0  0  0  0
   -3.5181    1.7704    1.7545 O   0  0  0  0  0  0  0  0  0  0  0  0
    3.3774   -2.6878   -0.0210 H   0  0  0  0  0  0  0  0  0  0  0  0
    4.2211   -2.2249    1.4670 H   0  0  0  0  0  0  0  0  0  0  0  0
    5.1461   -2.6936    0.0461 H   0  0  0  0  0  0  0  0  0  0  0  0
    5.5538    1.0566    0.3183 H   0  0  0  0  0  0  0  0  0  0  0  0
    5.3275   -0.0231    1.6975 H   0  0  0  0  0  0  0  0  0  0  0  0
    6.3990   -0.4890    0.3824 H   0  0  0  0  0  0  0  0  0  0  0  0
    5.6274   -0.5809   -1.8335 H   0  0  0  0  0  0  0  0  0  0  0  0
    4.3093   -1.6997   -2.0687 H   0  0  0  0  0  0  0  0  0  0  0  0
    4.2937    0.4878   -3.4215 H   0  0  0  0  0  0  0  0  0  0  0  0
    2.7882   -0.0712   -2.7122 H   0  0  0  0  0  0  0  0  0  0  0  0
    4.6244    2.0596   -1.5298 H   0  0  0  0  0  0  0  0  0  0  0  0
    3.1069    2.3652   -2.3483 H   0  0  0  0  0  0  0  0  0  0  0  0
    1.8334    1.7464   -0.5691 H   0  0  0  0  0  0  0  0  0  0  0  0
    3.2782    2.1793    0.3242 H   0  0  0  0  0  0  0  0  0  0  0  0
    2.1463   -0.5483   -0.3742 H   0  0  0  0  0  0  0  0  0  0  0  0
    3.2132    0.6069    2.2480 H   0  0  0  0  0  0  0  0  0  0  0  0
    2.5169   -0.9961    2.0613 H   0  0  0  0  0  0  0  0  0  0  0  0
    1.0204    1.6316    1.5758 H   0  0  0  0  0  0  0  0  0  0  0  0
    0.9398    0.6390    3.0254 H   0  0  0  0  0  0  0  0  0  0  0  0
   -1.2883    1.4020    1.5928 H   0  0  0  0  0  0  0  0  0  0  0  0
   -2.5788   -1.0964    1.3168 H   0  0  0  0  0  0  0  0  0  0  0  0
   -1.9035    0.3692   -1.2891 H   0  0  0  0  0  0  0  0  0  0  0  0
   -1.6987   -1.3284   -0.9307 H   0  0  0  0  0  0  0  0  0  0  0  0
   -3.9423    0.0319   -2.1352 H   0  0  0  0  0  0  0  0  0  0  0  0
   -3.6873   -1.6980   -1.9791 H   0  0  0  0  0  0  0  0  0  0  0  0
   -4.7125   -1.7150    0.2613 H   0  0  0  0  0  0  0  0  0  0  0  0
   -6.9245   -1.4347   -0.3330 H   0  0  0  0  0  0  0  0  0  0  0  0
   -6.3245   -1.1826   -1.9797 H   0  0  0  0  0  0  0  0  0  0  0  0
   -7.7887    0.7690   -0.7923 H   0  0  0  0  0  0  0  0  0  0  0  0
   -6.3179    1.2227   -1.6764 H   0  0  0  0  0  0  0  0  0  0  0  0
   -5.8405    2.1833    0.4938 H   0  0  0  0  0  0  0  0  0  0  0  0
   -6.5964    0.8072    1.3433 H   0  0  0  0  0  0  0  0  0  0  0  0
  1  2  1  0
  2  3  1  0
  2  4  1  0
  4  5  1  0
  5  6  1  0
  6  7  1  0
  7  8  1  0
  8  9  1  0
  9 10  1  0
 10 11  1  0
 11 12  2  0
 11 13  1  0
 13 14  1  0
 14 15  1  0
 15 16  1  0
 16 17  1  0
 17 18  1  0
 18 19  1  0
 19 20  1  0
 20 21  1  0
 21 22  1  0
 22 23  2  0
  8  2  1  0
 22 14  1  0
 21 17  1  0
  1 24  1  0
  1 25  1  0
  1 26  1  0
  3 27  1  0
  3 28  1  0
  3 29  1  0
  4 30  1  0
  4 31  1  0
  5 32  1  0
  5 33  1  0
  6 34  1  0
  6 35  1  0
  7 36  1  0
  7 37  1  0
  8 38  1  0
  9 39  1  0
  9 40  1  0
 10 41  1  0
 10 42  1  0
 13 43  1  0
 14 44  1  0
 15 45  1  0
 15 46  1  0
 16 47  1  0
 16 48  1  0
 17 49  1  0
 18 50  1  0
 18 51  1  0
 19 52  1  0
 19 53  1  0
 20 54  1  0
 20 55  1  0
M  END
>  <smiles>
CC1(C)CCCCC1CCC(=O)NC1CCC2CCCN2C1=O

$$$$
