mol_721270310023
     RDKit          3D

 43 44  0  0  0  0  0  0  0  0999 V2000
    6.5196   -2.9981   -1.9046 O   0  0  0  0  0  0  0  0  0  0  0  0
    5.6193   -2.2860   -1.4854 C   0  0  0  0  0  0  0  0  0  0  0  0
    4.3922   -2.8096   -1.2738 O   0  0  0  0  0  0  0  0  0  0  0  0
    5.7143   -0.7846   -1.2488 C   0  0  0  0  0  0  0  0  0  0  0  0
    4.5248   -0.2272   -0.6234 N   0  0  0  0  0  0  0  0  0  0  0  0
    4.4430   -0.0837    0.7440 C   0  0  0  0  0  0  0  0  0  0  0  0
    5.3596   -0.3720    1.5047 O   0  0  0  0  0  0  0  0  0  0  0  0
    3.1450    0.4091    1.2814 C   0  0  0  0  0  0  0  0  0  0  0  0
    2.7684    0.0141    2.5698 C   0  0  0  0  0  0  0  0  0  0  0  0
    1.5585    0.4487    3.1095 C   0  0  0  0  0  0  0  0  0  0  0  0
    0.7265    1.2897    2.3699 C   0  0  0  0  0  0  0  0  0  0  0  0
    1.0993    1.7154    1.0875 C   0  0  0  0  0  0  0  0  0  0  0  0
    0.1952    2.6340    0.2960 C   0  0  0  0  0  0  0  0  0  0  0  0
   -0.8897    1.8752   -0.4730 C   0  0  0  0  0  0  0  0  0  0  0  0
   -1.8936    1.4360    0.4462 O   0  0  0  0  0  0  0  0  0  0  0  0
   -2.9229    0.6951   -0.0630 C   0  0  0  0  0  0  0  0  0  0  0  0
   -3.8269    0.2220    0.8880 C   0  0  0  0  0  0  0  0  0  0  0  0
   -4.9268   -0.5479    0.5018 C   0  0  0  0  0  0  0  0  0  0  0  0
   -5.1464   -0.8599   -0.8507 C   0  0  0  0  0  0  0  0  0  0  0  0
   -6.3431   -1.6915   -1.2145 C   0  0  0  0  0  0  0  0  0  0  0  0
   -6.3300   -2.9209   -0.6313 F   0  0  0  0  0  0  0  0  0  0  0  0
   -6.4443   -1.9200   -2.5580 F   0  0  0  0  0  0  0  0  0  0  0  0
   -7.5197   -1.1133   -0.8492 F   0  0  0  0  0  0  0  0  0  0  0  0
   -4.2347   -0.3774   -1.7945 C   0  0  0  0  0  0  0  0  0  0  0  0
   -4.3388   -0.6104   -3.1389 O   0  0  0  0  0  0  0  0  0  0  0  0
   -3.1332    0.3936   -1.4072 C   0  0  0  0  0  0  0  0  0  0  0  0
    2.3147    1.2676    0.5461 C   0  0  0  0  0  0  0  0  0  0  0  0
    4.5137   -3.7663   -1.4474 H   0  0  0  0  0  0  0  0  0  0  0  0
    6.5916   -0.5855   -0.6267 H   0  0  0  0  0  0  0  0  0  0  0  0
    5.8232   -0.2934   -2.2198 H   0  0  0  0  0  0  0  0  0  0  0  0
    3.6842   -0.1766   -1.1813 H   0  0  0  0  0  0  0  0  0  0  0  0
    3.4157   -0.6381    3.1527 H   0  0  0  0  0  0  0  0  0  0  0  0
    1.2643    0.1325    4.1071 H   0  0  0  0  0  0  0  0  0  0  0  0
   -0.2179    1.6165    2.8020 H   0  0  0  0  0  0  0  0  0  0  0  0
   -0.2598    3.3613    0.9801 H   0  0  0  0  0  0  0  0  0  0  0  0
    0.8058    3.2082   -0.4116 H   0  0  0  0  0  0  0  0  0  0  0  0
   -0.4513    1.0206   -1.0033 H   0  0  0  0  0  0  0  0  0  0  0  0
   -1.3451    2.5651   -1.1937 H   0  0  0  0  0  0  0  0  0  0  0  0
   -3.6722    0.4530    1.9398 H   0  0  0  0  0  0  0  0  0  0  0  0
   -5.6160   -0.9060    1.2660 H   0  0  0  0  0  0  0  0  0  0  0  0
   -5.1256   -1.1499   -3.3446 H   0  0  0  0  0  0  0  0  0  0  0  0
   -2.4615    0.7442   -2.1837 H   0  0  0  0  0  0  0  0  0  0  0  0
    2.6202    1.6163   -0.4364 H   0  0  0  0  0  0  0  0  0  0  0  0
  1  2  2  0
  2  3  1  0
  2  4  1  0
  4  5  1  0
  5  6  1  0
  6  7  2  0
  6  8  1  0
  8  9  1  0
  9 10  2  0
 10 11  1  0
 11 12  2  0
 12 13  1  0
 13 14  1  0
 14 15  1  0
 15 16  1  0
 16 17  1  0
 17 18  2  0
 18 19  1  0
 19 20  1  0
 20 21  1  0
 20 22  1  0
 20 23  1  0
 19 24  2  0
 24 25  1  0
 24 26  1  0
 12 27  1  0
 27  8  2  0
 26 16  2  0
  3 28  1  0
  4 29  1  0
  4 30  1  0
  5 31  1  0
  9 32  1  0
 10 33  1  0
 11 34  1  0
 13 35  1  0
 13 36  1  0
 14 37  1  0
 14 38  1  0
 17 39  1  0
 18 40  1  0
 25 41  1  0
 26 42  1  0
 27 43  1  0
M  END
>  <smiles>
O=C(O)CNC(=O)c1cccc(CCOc2ccc(C(F)(F)F)c(O)c2)c1

$$$$
