mol_3f9546352c66
     RDKit          3D

 47 49  0  0  0  0  0  0  0  0999 V2000
   -1.6114    3.3491   -1.2693 C   0  0  0  0  0  0  0  0  0  0  0  0
   -2.0775    2.4016   -0.1688 C   0  0  0  0  0  0  0  0  0  0  0  0
   -1.2539    1.0953   -0.1334 C   0  0  0  0  0  0  0  0  0  0  0  0
    0.0747    1.4600    0.2512 O   0  0  0  0  0  0  0  0  0  0  0  0
    1.1336    0.5977    0.2963 C   0  0  0  0  0  0  0  0  0  0  0  0
    1.2789   -0.6806   -0.2779 C   0  0  0  0  0  0  0  0  0  0  0  0
    2.4684   -1.4202   -0.0088 C   0  0  0  0  0  0  0  0  0  0  0  0
    3.5056   -0.9225    0.7809 C   0  0  0  0  0  0  0  0  0  0  0  0
    4.6648   -1.5838    1.0775 O   0  0  0  0  0  0  0  0  0  0  0  0
    4.7740   -2.9383    0.6651 C   0  0  0  0  0  0  0  0  0  0  0  0
    3.3610    0.3525    1.3100 C   0  0  0  0  0  0  0  0  0  0  0  0
    4.3494    0.8860    2.1002 O   0  0  0  0  0  0  0  0  0  0  0  0
    2.2116    1.1103    1.0559 C   0  0  0  0  0  0  0  0  0  0  0  0
    2.1834    2.3486    1.6691 O   0  0  0  0  0  0  0  0  0  0  0  0
    2.1080    3.4151    0.7213 C   0  0  0  0  0  0  0  0  0  0  0  0
    0.2736   -1.4111   -1.1411 C   0  0  0  0  0  0  0  0  0  0  0  0
   -0.5405   -2.2318   -0.2987 O   0  0  0  0  0  0  0  0  0  0  0  0
   -1.8771   -2.0758   -0.5449 C   0  0  0  0  0  0  0  0  0  0  0  0
   -2.5194   -3.0557   -1.3007 C   0  0  0  0  0  0  0  0  0  0  0  0
   -3.8911   -2.9634   -1.5277 C   0  0  0  0  0  0  0  0  0  0  0  0
   -4.6165   -1.9034   -0.9850 C   0  0  0  0  0  0  0  0  0  0  0  0
   -3.9730   -0.9357   -0.2098 C   0  0  0  0  0  0  0  0  0  0  0  0
   -2.5935   -1.0144    0.0309 C   0  0  0  0  0  0  0  0  0  0  0  0
   -1.8629    0.0406    0.8350 C   0  0  0  0  0  0  0  0  0  0  0  0
   -2.7320    0.6285    1.8090 O   0  0  0  0  0  0  0  0  0  0  0  0
   -2.2200    4.2590   -1.2646 H   0  0  0  0  0  0  0  0  0  0  0  0
   -1.7102    2.8818   -2.2543 H   0  0  0  0  0  0  0  0  0  0  0  0
   -0.5668    3.6422   -1.1327 H   0  0  0  0  0  0  0  0  0  0  0  0
   -3.1367    2.1756   -0.3361 H   0  0  0  0  0  0  0  0  0  0  0  0
   -1.9882    2.9293    0.7885 H   0  0  0  0  0  0  0  0  0  0  0  0
   -1.2270    0.7471   -1.1658 H   0  0  0  0  0  0  0  0  0  0  0  0
    2.5510   -2.4176   -0.4350 H   0  0  0  0  0  0  0  0  0  0  0  0
    5.7262   -3.3265    1.0393 H   0  0  0  0  0  0  0  0  0  0  0  0
    3.9736   -3.5503    1.0942 H   0  0  0  0  0  0  0  0  0  0  0  0
    4.7897   -3.0162   -0.4269 H   0  0  0  0  0  0  0  0  0  0  0  0
    3.9877    1.7282    2.4333 H   0  0  0  0  0  0  0  0  0  0  0  0
    2.7428    4.2286    1.0856 H   0  0  0  0  0  0  0  0  0  0  0  0
    2.4617    3.1343   -0.2778 H   0  0  0  0  0  0  0  0  0  0  0  0
    1.0822    3.7902    0.6716 H   0  0  0  0  0  0  0  0  0  0  0  0
   -0.2700   -0.7530   -1.8215 H   0  0  0  0  0  0  0  0  0  0  0  0
    0.8058   -2.0912   -1.8202 H   0  0  0  0  0  0  0  0  0  0  0  0
   -1.9561   -3.8922   -1.7036 H   0  0  0  0  0  0  0  0  0  0  0  0
   -4.3976   -3.7233   -2.1168 H   0  0  0  0  0  0  0  0  0  0  0  0
   -5.6882   -1.8345   -1.1549 H   0  0  0  0  0  0  0  0  0  0  0  0
   -4.5561   -0.1217    0.2172 H   0  0  0  0  0  0  0  0  0  0  0  0
   -1.0866   -0.4593    1.4244 H   0  0  0  0  0  0  0  0  0  0  0  0
   -2.1554    1.1209    2.4198 H   0  0  0  0  0  0  0  0  0  0  0  0
  1  2  1  0
  2  3  1  0
  3  4  1  0
  4  5  1  0
  5  6  2  0
  6  7  1  0
  7  8  2  0
  8  9  1  0
  9 10  1  0
  8 11  1  0
 11 12  1  0
 11 13  2  0
 13 14  1  0
 14 15  1  0
  6 16  1  0
 16 17  1  0
 17 18  1  0
 18 19  2  0
 19 20  1  0
 20 21  2  0
 21 22  1  0
 22 23  2  0
 23 24  1  0
 24 25  1  0
 24  3  1  0
 13  5  1  0
 23 18  1  0
  1 26  1  0
  1 27  1  0
  1 28  1  0
  2 29  1  0
  2 30  1  0
  3 31  1  0
  7 32  1  0
 10 33  1  0
 10 34  1  0
 10 35  1  0
 12 36  1  0
 15 37  1  0
 15 38  1  0
 15 39  1  0
 16 40  1  0
 16 41  1  0
 19 42  1  0
 20 43  1  0
 21 44  1  0
 22 45  1  0
 24 46  1  0
 25 47  1  0
M  END
>  <smiles>
CCC1Oc2c(cc(OC)c(O)c2OC)COc2ccccc2C1O

$$$$
