mol_d59edd80dd5f
     RDKit          3D

 55 58  0  0  0  0  0  0  0  0999 V2000
   -5.1198    0.8371    0.6386 C   0  0  0  0  0  0  0  0  0  0  0  0
   -3.7255    0.2244    0.4365 C   0  0  0  0  0  0  0  0  0  0  0  0
   -2.7263    1.2741    0.9335 C   0  0  0  0  0  0  0  0  0  0  0  0
   -2.3972    1.4567    2.0953 O   0  0  0  0  0  0  0  0  0  0  0  0
   -2.2437    2.0680   -0.0422 O   0  0  0  0  0  0  0  0  0  0  0  0
   -3.5195   -0.1174   -1.0543 C   0  0  0  0  0  0  0  0  0  0  0  0
   -2.1464   -0.7464   -1.3038 C   0  0  0  0  0  0  0  0  0  0  0  0
   -1.7519   -1.6897   -0.2600 N   0  0  0  0  0  0  0  0  0  0  0  0
   -0.4884   -2.2597   -0.1398 C   0  0  0  0  0  0  0  0  0  0  0  0
   -0.2657   -3.1806    0.6502 O   0  0  0  0  0  0  0  0  0  0  0  0
    0.6624   -1.6753   -0.9702 C   0  0  0  0  0  0  0  0  0  0  0  0
    1.6036   -2.8077   -1.4639 C   0  0  0  0  0  0  0  0  0  0  0  0
    2.8328   -3.0253   -0.5678 C   0  0  0  0  0  0  0  0  0  0  0  0
    3.6854   -1.7584   -0.3792 C   0  0  0  0  0  0  0  0  0  0  0  0
    2.8724   -0.4931   -0.6241 C   0  0  0  0  0  0  0  0  0  0  0  0
    3.2563    0.7778    0.0750 C   0  0  0  0  0  0  0  0  0  0  0  0
    4.5193    1.2776    0.3390 C   0  0  0  0  0  0  0  0  0  0  0  0
    4.6221    2.5248    0.9581 C   0  0  0  0  0  0  0  0  0  0  0  0
    3.4710    3.2635    1.2856 C   0  0  0  0  0  0  0  0  0  0  0  0
    2.1896    2.7646    1.0042 C   0  0  0  0  0  0  0  0  0  0  0  0
    0.9660    3.5523    1.3050 C   0  0  0  0  0  0  0  0  0  0  0  0
   -0.1520    3.3630    0.8554 O   0  0  0  0  0  0  0  0  0  0  0  0
    1.2065    4.5488    2.1764 O   0  0  0  0  0  0  0  0  0  0  0  0
    2.0992    1.5094    0.4106 C   0  0  0  0  0  0  0  0  0  0  0  0
    0.8682    0.7410    0.0137 C   0  0  0  0  0  0  0  0  0  0  0  0
    1.4391   -0.6785   -0.0978 C   0  0  0  0  0  0  0  0  0  0  0  0
   -2.8318   -2.1971    0.5769 C   0  0  0  0  0  0  0  0  0  0  0  0
   -3.5859   -1.0684    1.2863 C   0  0  0  0  0  0  0  0  0  0  0  0
   -5.9077    0.1515    0.3076 H   0  0  0  0  0  0  0  0  0  0  0  0
   -5.2282    1.7702    0.0734 H   0  0  0  0  0  0  0  0  0  0  0  0
   -5.3002    1.0732    1.6938 H   0  0  0  0  0  0  0  0  0  0  0  0
   -1.5689    2.6496    0.4013 H   0  0  0  0  0  0  0  0  0  0  0  0
   -3.6377    0.7639   -1.6966 H   0  0  0  0  0  0  0  0  0  0  0  0
   -4.2982   -0.8245   -1.3720 H   0  0  0  0  0  0  0  0  0  0  0  0
   -1.3926    0.0360   -1.3883 H   0  0  0  0  0  0  0  0  0  0  0  0
   -2.1510   -1.2868   -2.2575 H   0  0  0  0  0  0  0  0  0  0  0  0
    0.2737   -1.1870   -1.8676 H   0  0  0  0  0  0  0  0  0  0  0  0
    1.9614   -2.5472   -2.4691 H   0  0  0  0  0  0  0  0  0  0  0  0
    1.0560   -3.7514   -1.5731 H   0  0  0  0  0  0  0  0  0  0  0  0
    3.4579   -3.8255   -0.9806 H   0  0  0  0  0  0  0  0  0  0  0  0
    2.4968   -3.3767    0.4157 H   0  0  0  0  0  0  0  0  0  0  0  0
    4.1171   -1.7686    0.6294 H   0  0  0  0  0  0  0  0  0  0  0  0
    4.5362   -1.7761   -1.0716 H   0  0  0  0  0  0  0  0  0  0  0  0
    2.8517   -0.2805   -1.7029 H   0  0  0  0  0  0  0  0  0  0  0  0
    5.4122    0.7208    0.0715 H   0  0  0  0  0  0  0  0  0  0  0  0
    5.6041    2.9362    1.1814 H   0  0  0  0  0  0  0  0  0  0  0  0
    3.5914    4.2380    1.7544 H   0  0  0  0  0  0  0  0  0  0  0  0
    0.3320    4.9599    2.3374 H   0  0  0  0  0  0  0  0  0  0  0  0
    0.0945    0.7753    0.7828 H   0  0  0  0  0  0  0  0  0  0  0  0
    0.4943    1.1205   -0.9415 H   0  0  0  0  0  0  0  0  0  0  0  0
    1.4953   -1.0744    0.9313 H   0  0  0  0  0  0  0  0  0  0  0  0
   -2.4697   -2.9119    1.3230 H   0  0  0  0  0  0  0  0  0  0  0  0
   -3.5125   -2.7536   -0.0797 H   0  0  0  0  0  0  0  0  0  0  0  0
   -3.0742   -0.8595    2.2334 H   0  0  0  0  0  0  0  0  0  0  0  0
   -4.5730   -1.4568    1.5683 H   0  0  0  0  0  0  0  0  0  0  0  0
  1  2  1  0
  2  3  1  0
  3  4  2  0
  3  5  1  0
  2  6  1  0
  6  7  1  0
  7  8  1  0
  8  9  1  0
  9 10  2  0
  9 11  1  0
 11 12  1  0
 12 13  1  0
 13 14  1  0
 14 15  1  0
 15 16  1  0
 16 17  2  0
 17 18  1  0
 18 19  2  0
 19 20  1  0
 20 21  1  0
 21 22  2  0
 21 23  1  0
 20 24  2  0
 24 25  1  0
 25 26  1  0
  8 27  1  0
 27 28  1  0
 28  2  1  0
 26 11  1  0
 26 15  1  0
 24 16  1  0
  1 29  1  0
  1 30  1  0
  1 31  1  0
  5 32  1  0
  6 33  1  0
  6 34  1  0
  7 35  1  0
  7 36  1  0
 11 37  1  0
 12 38  1  0
 12 39  1  0
 13 40  1  0
 13 41  1  0
 14 42  1  0
 14 43  1  0
 15 44  1  0
 17 45  1  0
 18 46  1  0
 19 47  1  0
 23 48  1  0
 25 49  1  0
 25 50  1  0
 26 51  1  0
 27 52  1  0
 27 53  1  0
 28 54  1  0
 28 55  1  0
M  END
>  <smiles>
CC1(C(=O)O)CCN(C(=O)C2CCCC3c4cccc(C(=O)O)c4CC23)CC1

$$$$
