mol_65cf8519d51a
     RDKit          3D

 36 38  0  0  0  0  0  0  0  0999 V2000
    7.0562    0.3751    1.2259 O   0  0  0  0  0  0  0  0  0  0  0  0
    5.9338    0.8438    1.1565 C   0  0  0  0  0  0  0  0  0  0  0  0
    5.6441    2.0481    1.6789 O   0  0  0  0  0  0  0  0  0  0  0  0
    4.7666    0.2119    0.5254 C   0  0  0  0  0  0  0  0  0  0  0  0
    4.7965   -0.9892   -0.0715 C   0  0  0  0  0  0  0  0  0  0  0  0
    3.4325   -1.3197   -0.5997 C   0  0  0  0  0  0  0  0  0  0  0  0
    2.6231   -0.0988   -0.2131 C   0  0  0  0  0  0  0  0  0  0  0  0
    1.2055    0.0413   -0.5302 C   0  0  0  0  0  0  0  0  0  0  0  0
    0.3859   -1.0766   -0.9873 C   0  0  0  0  0  0  0  0  0  0  0  0
   -0.9046   -0.9195   -1.3029 C   0  0  0  0  0  0  0  0  0  0  0  0
   -1.5178    0.3144   -1.2137 N   0  0  0  0  0  0  0  0  0  0  0  0
   -2.9366    0.4344   -1.5537 C   0  0  0  0  0  0  0  0  0  0  0  0
   -3.8453   -0.0372   -0.4381 C   0  0  0  0  0  0  0  0  0  0  0  0
   -4.0709    0.7724    0.6743 C   0  0  0  0  0  0  0  0  0  0  0  0
   -4.8962    0.3033    1.6920 C   0  0  0  0  0  0  0  0  0  0  0  0
   -5.4701   -0.9565    1.5768 C   0  0  0  0  0  0  0  0  0  0  0  0
   -5.1922   -1.7006    0.4430 C   0  0  0  0  0  0  0  0  0  0  0  0
   -4.3954   -1.2744   -0.5618 N   0  0  0  0  0  0  0  0  0  0  0  0
   -0.8369    1.4381   -0.7719 C   0  0  0  0  0  0  0  0  0  0  0  0
   -1.3373    2.5522   -0.6379 O   0  0  0  0  0  0  0  0  0  0  0  0
    0.6016    1.2439   -0.4430 C   0  0  0  0  0  0  0  0  0  0  0  0
    3.4311    0.7576    0.4411 C   0  0  0  0  0  0  0  0  0  0  0  0
    6.4971    2.3456    2.0575 H   0  0  0  0  0  0  0  0  0  0  0  0
    5.6640   -1.6272   -0.1597 H   0  0  0  0  0  0  0  0  0  0  0  0
    3.4612   -1.4543   -1.6858 H   0  0  0  0  0  0  0  0  0  0  0  0
    3.0521   -2.2275   -0.1206 H   0  0  0  0  0  0  0  0  0  0  0  0
    0.8310   -2.0630   -1.0620 H   0  0  0  0  0  0  0  0  0  0  0  0
   -1.5167   -1.7564   -1.6305 H   0  0  0  0  0  0  0  0  0  0  0  0
   -3.1276   -0.1506   -2.4625 H   0  0  0  0  0  0  0  0  0  0  0  0
   -3.1831    1.4741   -1.8004 H   0  0  0  0  0  0  0  0  0  0  0  0
   -3.6086    1.7529    0.7500 H   0  0  0  0  0  0  0  0  0  0  0  0
   -5.0863    0.9170    2.5679 H   0  0  0  0  0  0  0  0  0  0  0  0
   -6.1169   -1.3499    2.3527 H   0  0  0  0  0  0  0  0  0  0  0  0
   -5.6163   -2.6916    0.3083 H   0  0  0  0  0  0  0  0  0  0  0  0
    1.1079    2.1499   -0.1353 H   0  0  0  0  0  0  0  0  0  0  0  0
    3.1685    1.7166    0.8624 H   0  0  0  0  0  0  0  0  0  0  0  0
  1  2  2  0
  2  3  1  0
  2  4  1  0
  4  5  2  0
  5  6  1  0
  6  7  1  0
  7  8  1  0
  8  9  1  0
  9 10  2  0
 10 11  1  0
 11 12  1  0
 12 13  1  0
 13 14  2  0
 14 15  1  0
 15 16  2  0
 16 17  1  0
 17 18  2  0
 11 19  1  0
 19 20  2  0
 19 21  1  0
  7 22  2  0
 22  4  1  0
 21  8  2  0
 18 13  1  0
  3 23  1  0
  5 24  1  0
  6 25  1  0
  6 26  1  0
  9 27  1  0
 10 28  1  0
 12 29  1  0
 12 30  1  0
 14 31  1  0
 15 32  1  0
 16 33  1  0
 17 34  1  0
 21 35  1  0
 22 36  1  0
M  END
>  <smiles>
O=C(O)C1=CCC(c2ccn(Cc3ccccn3)c(=O)c2)=C1

$$$$
