mol_e37a9f1d53a4
     RDKit          3D

 61 63  0  0  0  0  0  0  0  0999 V2000
    4.5617    3.7068    0.5046 C   0  0  0  0  0  0  0  0  0  0  0  0
    4.7898    2.9503   -0.7953 C   0  0  0  0  0  0  0  0  0  0  0  0
    4.1097    1.6059   -0.7875 C   0  0  0  0  0  0  0  0  0  0  0  0
    4.7989    0.4601   -0.3791 C   0  0  0  0  0  0  0  0  0  0  0  0
    4.1563   -0.7806   -0.3487 C   0  0  0  0  0  0  0  0  0  0  0  0
    2.8094   -0.9083   -0.7249 C   0  0  0  0  0  0  0  0  0  0  0  0
    2.1565   -2.2799   -0.6371 C   0  0  0  0  0  0  0  0  0  0  0  0
    1.6472   -2.5635    0.7810 C   0  0  0  0  0  0  0  0  0  0  0  0
    0.2429   -1.9656    0.7840 C   0  0  0  0  0  0  0  0  0  0  0  0
   -0.2210   -2.0926   -0.5900 N   0  0  0  0  0  0  0  0  0  0  0  0
   -1.4557   -1.8111   -1.1220 C   0  0  0  0  0  0  0  0  0  0  0  0
   -1.6311   -1.8994   -2.3467 O   0  0  0  0  0  0  0  0  0  0  0  0
   -2.6198   -1.2512   -0.2619 C   0  0  0  0  0  0  0  0  0  0  0  0
   -2.4224    0.1967   -0.1183 N   0  0  0  0  0  0  0  0  0  0  0  0
   -1.8340    0.8402    0.9430 C   0  0  0  0  0  0  0  0  0  0  0  0
   -1.5785    0.3152    2.0191 O   0  0  0  0  0  0  0  0  0  0  0  0
   -1.5207    2.2820    0.7394 C   0  0  0  0  0  0  0  0  0  0  0  0
   -1.5491    3.1334    1.8505 C   0  0  0  0  0  0  0  0  0  0  0  0
   -1.2460    4.4881    1.7044 C   0  0  0  0  0  0  0  0  0  0  0  0
   -0.9030    4.9943    0.4511 C   0  0  0  0  0  0  0  0  0  0  0  0
   -0.8548    4.1477   -0.6564 C   0  0  0  0  0  0  0  0  0  0  0  0
   -1.1584    2.7916   -0.5152 C   0  0  0  0  0  0  0  0  0  0  0  0
   -3.0767   -2.0450    0.9823 C   0  0  0  0  0  0  0  0  0  0  0  0
   -4.4124   -1.4998    1.5156 C   0  0  0  0  0  0  0  0  0  0  0  0
   -3.1809   -3.5678    0.7288 C   0  0  0  0  0  0  0  0  0  0  0  0
   -4.1705   -3.9903   -0.3490 C   0  0  0  0  0  0  0  0  0  0  0  0
    0.8798   -2.4899   -1.4634 C   0  0  0  0  0  0  0  0  0  0  0  0
    2.1249    0.2466   -1.1276 C   0  0  0  0  0  0  0  0  0  0  0  0
    2.7660    1.4885   -1.1565 C   0  0  0  0  0  0  0  0  0  0  0  0
    5.0693    4.6760    0.4724 H   0  0  0  0  0  0  0  0  0  0  0  0
    4.9509    3.1478    1.3624 H   0  0  0  0  0  0  0  0  0  0  0  0
    3.4954    3.8883    0.6779 H   0  0  0  0  0  0  0  0  0  0  0  0
    5.8659    2.8212   -0.9637 H   0  0  0  0  0  0  0  0  0  0  0  0
    4.4197    3.5437   -1.6403 H   0  0  0  0  0  0  0  0  0  0  0  0
    5.8409    0.5255   -0.0746 H   0  0  0  0  0  0  0  0  0  0  0  0
    4.7177   -1.6526   -0.0189 H   0  0  0  0  0  0  0  0  0  0  0  0
    2.9031   -3.0231   -0.9438 H   0  0  0  0  0  0  0  0  0  0  0  0
    1.5766   -3.6490    0.9287 H   0  0  0  0  0  0  0  0  0  0  0  0
    2.2722   -2.1565    1.5819 H   0  0  0  0  0  0  0  0  0  0  0  0
    0.2827   -0.9064    1.0396 H   0  0  0  0  0  0  0  0  0  0  0  0
   -0.4063   -2.4962    1.4783 H   0  0  0  0  0  0  0  0  0  0  0  0
   -3.4773   -1.2940   -0.9511 H   0  0  0  0  0  0  0  0  0  0  0  0
   -2.6627    0.7390   -0.9370 H   0  0  0  0  0  0  0  0  0  0  0  0
   -1.8072    2.7412    2.8323 H   0  0  0  0  0  0  0  0  0  0  0  0
   -1.2725    5.1458    2.5696 H   0  0  0  0  0  0  0  0  0  0  0  0
   -0.6633    6.0492    0.3399 H   0  0  0  0  0  0  0  0  0  0  0  0
   -0.5708    4.5434   -1.6287 H   0  0  0  0  0  0  0  0  0  0  0  0
   -1.0769    2.1451   -1.3842 H   0  0  0  0  0  0  0  0  0  0  0  0
   -2.3584   -1.9213    1.7953 H   0  0  0  0  0  0  0  0  0  0  0  0
   -5.1924   -1.5114    0.7478 H   0  0  0  0  0  0  0  0  0  0  0  0
   -4.3073   -0.4674    1.8634 H   0  0  0  0  0  0  0  0  0  0  0  0
   -4.7630   -2.0951    2.3655 H   0  0  0  0  0  0  0  0  0  0  0  0
   -3.4636   -4.0617    1.6673 H   0  0  0  0  0  0  0  0  0  0  0  0
   -2.1933   -3.9662    0.4697 H   0  0  0  0  0  0  0  0  0  0  0  0
   -3.9072   -3.5769   -1.3263 H   0  0  0  0  0  0  0  0  0  0  0  0
   -5.1904   -3.6815   -0.1036 H   0  0  0  0  0  0  0  0  0  0  0  0
   -4.1713   -5.0814   -0.4432 H   0  0  0  0  0  0  0  0  0  0  0  0
    0.7352   -3.5556   -1.6796 H   0  0  0  0  0  0  0  0  0  0  0  0
    0.8656   -1.9475   -2.4141 H   0  0  0  0  0  0  0  0  0  0  0  0
    1.0769    0.2074   -1.4125 H   0  0  0  0  0  0  0  0  0  0  0  0
    2.2038    2.3681   -1.4619 H   0  0  0  0  0  0  0  0  0  0  0  0
  1  2  1  0
  2  3  1  0
  3  4  1  0
  4  5  2  0
  5  6  1  0
  6  7  1  0
  7  8  1  0
  8  9  1  0
  9 10  1  0
 10 11  1  0
 11 12  2  0
 11 13  1  0
 13 14  1  0
 14 15  1  0
 15 16  2  0
 15 17  1  0
 17 18  2  0
 18 19  1  0
 19 20  2  0
 20 21  1  0
 21 22  2  0
 13 23  1  0
 23 24  1  0
 23 25  1  0
 25 26  1  0
 10 27  1  0
  6 28  2  0
 28 29  1  0
 29  3  2  0
 27  7  1  0
 22 17  1  0
  1 30  1  0
  1 31  1  0
  1 32  1  0
  2 33  1  0
  2 34  1  0
  4 35  1  0
  5 36  1  0
  7 37  1  0
  8 38  1  0
  8 39  1  0
  9 40  1  0
  9 41  1  0
 13 42  1  0
 14 43  1  0
 18 44  1  0
 19 45  1  0
 20 46  1  0
 21 47  1  0
 22 48  1  0
 23 49  1  0
 24 50  1  0
 24 51  1  0
 24 52  1  0
 25 53  1  0
 25 54  1  0
 26 55  1  0
 26 56  1  0
 26 57  1  0
 27 58  1  0
 27 59  1  0
 28 60  1  0
 29 61  1  0
M  END
>  <smiles>
CCc1ccc(C2CCN(C(=O)C(NC(=O)c3ccccc3)C(C)CC)C2)cc1

$$$$
