mol_275a334a0673
     RDKit          3D

 58 62  0  0  0  0  0  0  0  0999 V2000
   -1.7973    1.6494    1.8127 O   0  0  0  0  0  0  0  0  0  0  0  0
   -1.4869    0.7178    1.0785 C   0  0  0  0  0  0  0  0  0  0  0  0
   -2.3853   -0.2679    0.7375 N   0  0  0  0  0  0  0  0  0  0  0  0
   -3.7307   -0.2518    1.2538 C   0  0  0  0  0  0  0  0  0  0  0  0
   -4.5196   -1.4124    0.7113 C   0  0  0  0  0  0  0  0  0  0  0  0
   -4.5150   -2.6470    1.3783 C   0  0  0  0  0  0  0  0  0  0  0  0
   -5.2154   -3.7360    0.8565 C   0  0  0  0  0  0  0  0  0  0  0  0
   -5.9192   -3.6032   -0.3389 C   0  0  0  0  0  0  0  0  0  0  0  0
   -5.9185   -2.3842   -1.0058 C   0  0  0  0  0  0  0  0  0  0  0  0
   -6.6170   -2.3005   -2.1738 O   0  0  0  0  0  0  0  0  0  0  0  0
   -5.2237   -1.2903   -0.4963 C   0  0  0  0  0  0  0  0  0  0  0  0
   -0.1590    0.5672    0.4988 C   0  0  0  0  0  0  0  0  0  0  0  0
    0.3979   -0.5866   -0.0317 C   0  0  0  0  0  0  0  0  0  0  0  0
    1.6718   -0.2696   -0.3937 N   0  0  0  0  0  0  0  0  0  0  0  0
    2.6571   -1.1587   -0.9807 C   0  0  0  0  0  0  0  0  0  0  0  0
    3.6967   -1.6045    0.0433 C   0  0  0  0  0  0  0  0  0  0  0  0
    4.6822   -2.5731   -0.5613 C   0  0  0  0  0  0  0  0  0  0  0  0
    5.7981   -2.0994   -1.2645 C   0  0  0  0  0  0  0  0  0  0  0  0
    6.6985   -2.9933   -1.8453 C   0  0  0  0  0  0  0  0  0  0  0  0
    6.4906   -4.3665   -1.7316 C   0  0  0  0  0  0  0  0  0  0  0  0
    5.3821   -4.8475   -1.0370 C   0  0  0  0  0  0  0  0  0  0  0  0
    4.4798   -3.9556   -0.4553 C   0  0  0  0  0  0  0  0  0  0  0  0
    1.9950    1.0053   -0.1496 N   0  0  0  0  0  0  0  0  0  0  0  0
    0.8832    1.5418    0.3808 C   0  0  0  0  0  0  0  0  0  0  0  0
    0.8173    2.9164    0.7643 C   0  0  0  0  0  0  0  0  0  0  0  0
    0.0050    3.8791    0.2828 C   0  0  0  0  0  0  0  0  0  0  0  0
   -1.0679    3.8764   -0.7574 C   0  0  0  0  0  0  0  0  0  0  0  0
   -1.6785    5.2465   -0.9736 C   0  0  0  0  0  0  0  0  0  0  0  0
   -1.2919    6.3425   -0.2966 C   0  0  0  0  0  0  0  0  0  0  0  0
   -0.2358    6.2794    0.6936 C   0  0  0  0  0  0  0  0  0  0  0  0
    0.3710    5.1160    0.9568 C   0  0  0  0  0  0  0  0  0  0  0  0
    1.4516    4.8422    1.8698 C   0  0  0  0  0  0  0  0  0  0  0  0
    1.7213    3.5316    1.7434 C   0  0  0  0  0  0  0  0  0  0  0  0
   -2.1178   -1.0044    0.1021 H   0  0  0  0  0  0  0  0  0  0  0  0
   -3.6886   -0.2868    2.3490 H   0  0  0  0  0  0  0  0  0  0  0  0
   -4.2031    0.7002    0.9833 H   0  0  0  0  0  0  0  0  0  0  0  0
   -3.9650   -2.7657    2.3100 H   0  0  0  0  0  0  0  0  0  0  0  0
   -5.2131   -4.6881    1.3809 H   0  0  0  0  0  0  0  0  0  0  0  0
   -6.4668   -4.4469   -0.7493 H   0  0  0  0  0  0  0  0  0  0  0  0
   -6.5686   -1.3879   -2.5022 H   0  0  0  0  0  0  0  0  0  0  0  0
   -5.2198   -0.3423   -1.0269 H   0  0  0  0  0  0  0  0  0  0  0  0
    0.0170   -1.5909   -0.1489 H   0  0  0  0  0  0  0  0  0  0  0  0
    2.1196   -2.0184   -1.3984 H   0  0  0  0  0  0  0  0  0  0  0  0
    3.1192   -0.6231   -1.8188 H   0  0  0  0  0  0  0  0  0  0  0  0
    3.2051   -2.0706    0.9074 H   0  0  0  0  0  0  0  0  0  0  0  0
    4.2388   -0.7393    0.4467 H   0  0  0  0  0  0  0  0  0  0  0  0
    5.9744   -1.0298   -1.3617 H   0  0  0  0  0  0  0  0  0  0  0  0
    7.5636   -2.6176   -2.3858 H   0  0  0  0  0  0  0  0  0  0  0  0
    7.1936   -5.0618   -2.1829 H   0  0  0  0  0  0  0  0  0  0  0  0
    5.2218   -5.9188   -0.9472 H   0  0  0  0  0  0  0  0  0  0  0  0
    3.6212   -4.3488    0.0841 H   0  0  0  0  0  0  0  0  0  0  0  0
   -1.8715    3.1917   -0.4674 H   0  0  0  0  0  0  0  0  0  0  0  0
   -0.6552    3.5266   -1.7106 H   0  0  0  0  0  0  0  0  0  0  0  0
   -2.4703    5.3224   -1.7124 H   0  0  0  0  0  0  0  0  0  0  0  0
   -1.7581    7.3058   -0.4786 H   0  0  0  0  0  0  0  0  0  0  0  0
    0.0498    7.1962    1.1976 H   0  0  0  0  0  0  0  0  0  0  0  0
    1.9481    5.5536    2.5072 H   0  0  0  0  0  0  0  0  0  0  0  0
    2.4879    2.9814    2.2669 H   0  0  0  0  0  0  0  0  0  0  0  0
  1  2  2  0
  2  3  1  0
  3  4  1  0
  4  5  1  0
  5  6  2  0
  6  7  1  0
  7  8  2  0
  8  9  1  0
  9 10  1  0
  9 11  2  0
  2 12  1  0
 12 13  2  0
 13 14  1  0
 14 15  1  0
 15 16  1  0
 16 17  1  0
 17 18  2  0
 18 19  1  0
 19 20  2  0
 20 21  1  0
 21 22  2  0
 14 23  1  0
 23 24  2  0
 24 25  1  0
 25 26  2  0
 26 27  1  0
 27 28  1  0
 28 29  2  0
 29 30  1  0
 30 31  2  0
 31 32  1  0
 32 33  2  0
 11  5  1  0
 24 12  1  0
 33 25  1  0
 22 17  1  0
 31 26  1  0
  3 34  1  0
  4 35  1  0
  4 36  1  0
  6 37  1  0
  7 38  1  0
  8 39  1  0
 10 40  1  0
 11 41  1  0
 13 42  1  0
 15 43  1  0
 15 44  1  0
 16 45  1  0
 16 46  1  0
 18 47  1  0
 19 48  1  0
 20 49  1  0
 21 50  1  0
 22 51  1  0
 27 52  1  0
 27 53  1  0
 28 54  1  0
 29 55  1  0
 30 56  1  0
 32 57  1  0
 33 58  1  0
M  END
>  <smiles>
O=C(NCc1cccc(O)c1)c1cn(CCc2ccccc2)nc1C1=C2CC=CC=C2C=C1

$$$$
