mol_d54c50ea28a3
     RDKit          3D

 42 46  0  0  0  0  0  0  0  0999 V2000
    1.9386   -0.7719    2.3364 O   0  0  0  0  0  0  0  0  0  0  0  0
    1.5698   -0.3031    1.2526 C   0  0  0  0  0  0  0  0  0  0  0  0
    0.0524   -0.0592    1.1058 C   0  0  0  0  0  0  0  0  0  0  0  0
   -0.4311    0.5859    0.0230 C   0  0  0  0  0  0  0  0  0  0  0  0
    0.5215    0.8259   -1.0653 C   0  0  0  0  0  0  0  0  0  0  0  0
    1.8275    0.5740   -0.9677 C   0  0  0  0  0  0  0  0  0  0  0  0
    2.3992    0.0321    0.1698 N   0  0  0  0  0  0  0  0  0  0  0  0
    3.8289   -0.1918    0.2416 C   0  0  0  0  0  0  0  0  0  0  0  0
    4.7203    0.6091   -0.4976 C   0  0  0  0  0  0  0  0  0  0  0  0
    6.1034    0.3977   -0.4524 C   0  0  0  0  0  0  0  0  0  0  0  0
    6.6276   -0.6232    0.3315 C   0  0  0  0  0  0  0  0  0  0  0  0
    5.7690   -1.4289    1.0705 C   0  0  0  0  0  0  0  0  0  0  0  0
    4.3859   -1.2143    1.0252 C   0  0  0  0  0  0  0  0  0  0  0  0
   -1.8562    1.0776   -0.1796 C   0  0  0  0  0  0  0  0  0  0  0  0
   -1.9288    2.3841   -0.7134 C   0  0  0  0  0  0  0  0  0  0  0  0
   -0.8785    3.2183   -0.6168 F   0  0  0  0  0  0  0  0  0  0  0  0
   -3.0249    2.8100   -1.4412 C   0  0  0  0  0  0  0  0  0  0  0  0
   -3.0373    4.0319   -1.9913 F   0  0  0  0  0  0  0  0  0  0  0  0
   -4.0740    1.9465   -1.6851 C   0  0  0  0  0  0  0  0  0  0  0  0
   -4.1029    0.6887   -1.0768 C   0  0  0  0  0  0  0  0  0  0  0  0
   -5.2158   -0.1320   -1.3287 C   0  0  0  0  0  0  0  0  0  0  0  0
   -5.3926   -1.3334   -0.6560 C   0  0  0  0  0  0  0  0  0  0  0  0
   -4.5022   -1.6725    0.3459 C   0  0  0  0  0  0  0  0  0  0  0  0
   -3.3803   -0.8666    0.5921 C   0  0  0  0  0  0  0  0  0  0  0  0
   -3.0542    0.2741   -0.1995 C   0  0  0  0  0  0  0  0  0  0  0  0
   -2.9139   -0.9913    1.8804 O   0  0  0  0  0  0  0  0  0  0  0  0
   -1.6509   -1.6002    1.9633 C   0  0  0  0  0  0  0  0  0  0  0  0
   -0.6635   -0.5802    2.1668 N   0  0  0  0  0  0  0  0  0  0  0  0
    0.1407    1.2180   -2.0053 H   0  0  0  0  0  0  0  0  0  0  0  0
    2.4667    0.7577   -1.8247 H   0  0  0  0  0  0  0  0  0  0  0  0
    4.3657    1.4481   -1.0894 H   0  0  0  0  0  0  0  0  0  0  0  0
    6.7689    1.0411   -1.0225 H   0  0  0  0  0  0  0  0  0  0  0  0
    7.7009   -0.7880    0.3711 H   0  0  0  0  0  0  0  0  0  0  0  0
    6.1688   -2.2313    1.6855 H   0  0  0  0  0  0  0  0  0  0  0  0
    3.7606   -1.8943    1.5967 H   0  0  0  0  0  0  0  0  0  0  0  0
   -4.8870    2.2905   -2.3193 H   0  0  0  0  0  0  0  0  0  0  0  0
   -5.9817    0.1759   -2.0398 H   0  0  0  0  0  0  0  0  0  0  0  0
   -6.2713   -1.9445   -0.8423 H   0  0  0  0  0  0  0  0  0  0  0  0
   -4.7208   -2.5149    0.9976 H   0  0  0  0  0  0  0  0  0  0  0  0
   -1.4217   -2.2424    1.1006 H   0  0  0  0  0  0  0  0  0  0  0  0
   -1.6657   -2.2575    2.8398 H   0  0  0  0  0  0  0  0  0  0  0  0
   -0.0609   -0.7457    2.9765 H   0  0  0  0  0  0  0  0  0  0  0  0
  1  2  2  0
  2  3  1  0
  3  4  2  0
  4  5  1  0
  5  6  2  0
  6  7  1  0
  7  8  1  0
  8  9  2  0
  9 10  1  0
 10 11  2  0
 11 12  1  0
 12 13  2  0
  4 14  1  0
 14 15  2  0
 15 16  1  0
 15 17  1  0
 17 18  1  0
 17 19  2  0
 19 20  1  0
 20 21  2  0
 21 22  1  0
 22 23  2  0
 23 24  1  0
 24 25  2  0
 24 26  1  0
 26 27  1  0
 27 28  1  0
  7  2  1  0
 13  8  1  0
 25 14  1  0
 28  3  1  0
 25 20  1  0
  5 29  1  0
  6 30  1  0
  9 31  1  0
 10 32  1  0
 11 33  1  0
 12 34  1  0
 13 35  1  0
 19 36  1  0
 21 37  1  0
 22 38  1  0
 23 39  1  0
 27 40  1  0
 27 41  1  0
 28 42  1  0
M  END
>  <smiles>
O=c1c2c(ccn1-c1ccccc1)-c1c(F)c(F)cc3cccc(c13)OCN2

$$$$
