mol_8aa68604438d
     RDKit          3D

 41 43  0  0  0  0  0  0  0  0999 V2000
   -1.7897   -0.9319   -3.0426 C   0  0  0  0  0  0  0  0  0  0  0  0
   -0.9806   -1.1000   -1.7510 C   0  0  0  0  0  0  0  0  0  0  0  0
   -1.6967   -2.0023   -0.7376 C   0  0  0  0  0  0  0  0  0  0  0  0
   -2.9998   -1.3905   -0.2298 C   0  0  0  0  0  0  0  0  0  0  0  0
   -2.8830    0.0709    0.1237 C   0  0  0  0  0  0  0  0  0  0  0  0
   -3.9122    0.6689    0.8681 C   0  0  0  0  0  0  0  0  0  0  0  0
   -3.8691    2.0269    1.1824 C   0  0  0  0  0  0  0  0  0  0  0  0
   -2.8009    2.8064    0.7507 C   0  0  0  0  0  0  0  0  0  0  0  0
   -1.7767    2.2273    0.0031 C   0  0  0  0  0  0  0  0  0  0  0  0
   -1.8076    0.8599   -0.3255 C   0  0  0  0  0  0  0  0  0  0  0  0
   -0.6477    0.2690   -1.1105 C   0  0  0  0  0  0  0  0  0  0  0  0
    0.4973    0.1523   -0.2182 N   0  0  0  0  0  0  0  0  0  0  0  0
    1.7829    0.1416   -0.6741 C   0  0  0  0  0  0  0  0  0  0  0  0
    2.0592    0.2445   -1.8663 O   0  0  0  0  0  0  0  0  0  0  0  0
    2.7431    0.0100    0.2962 N   0  0  0  0  0  0  0  0  0  0  0  0
    2.5588   -0.1696    1.7277 C   0  0  0  0  0  0  0  0  0  0  0  0
    3.9439   -0.5220    2.2515 C   0  0  0  0  0  0  0  0  0  0  0  0
    4.8698    0.1979    1.2801 C   0  0  0  0  0  0  0  0  0  0  0  0
    4.1529    0.0340   -0.0515 C   0  0  0  0  0  0  0  0  0  0  0  0
   -2.7240   -0.3851   -2.8834 H   0  0  0  0  0  0  0  0  0  0  0  0
   -2.0374   -1.9082   -3.4725 H   0  0  0  0  0  0  0  0  0  0  0  0
   -1.2068   -0.3798   -3.7878 H   0  0  0  0  0  0  0  0  0  0  0  0
   -0.0461   -1.6017   -2.0361 H   0  0  0  0  0  0  0  0  0  0  0  0
   -1.9024   -2.9849   -1.1789 H   0  0  0  0  0  0  0  0  0  0  0  0
   -1.0289   -2.1827    0.1151 H   0  0  0  0  0  0  0  0  0  0  0  0
   -3.7781   -1.4970   -0.9953 H   0  0  0  0  0  0  0  0  0  0  0  0
   -3.3308   -1.9571    0.6492 H   0  0  0  0  0  0  0  0  0  0  0  0
   -4.7598    0.0750    1.2041 H   0  0  0  0  0  0  0  0  0  0  0  0
   -4.6723    2.4767    1.7600 H   0  0  0  0  0  0  0  0  0  0  0  0
   -2.7650    3.8650    0.9933 H   0  0  0  0  0  0  0  0  0  0  0  0
   -0.9435    2.8459   -0.3265 H   0  0  0  0  0  0  0  0  0  0  0  0
   -0.3743    0.9694   -1.9111 H   0  0  0  0  0  0  0  0  0  0  0  0
    0.3172    0.1027    0.7697 H   0  0  0  0  0  0  0  0  0  0  0  0
    2.2008    0.7788    2.1428 H   0  0  0  0  0  0  0  0  0  0  0  0
    1.8233   -0.9526    1.9345 H   0  0  0  0  0  0  0  0  0  0  0  0
    4.1064   -1.6046    2.1838 H   0  0  0  0  0  0  0  0  0  0  0  0
    4.0917   -0.2175    3.2912 H   0  0  0  0  0  0  0  0  0  0  0  0
    5.8825   -0.2137    1.2678 H   0  0  0  0  0  0  0  0  0  0  0  0
    4.9318    1.2600    1.5459 H   0  0  0  0  0  0  0  0  0  0  0  0
    4.3984   -0.9241   -0.5232 H   0  0  0  0  0  0  0  0  0  0  0  0
    4.3736    0.8418   -0.7559 H   0  0  0  0  0  0  0  0  0  0  0  0
  1  2  1  0
  2  3  1  0
  3  4  1  0
  4  5  1  0
  5  6  2  0
  6  7  1  0
  7  8  2  0
  8  9  1  0
  9 10  2  0
 10 11  1  0
 11 12  1  0
 12 13  1  0
 13 14  2  0
 13 15  1  0
 15 16  1  0
 16 17  1  0
 17 18  1  0
 18 19  1  0
 11  2  1  0
 19 15  1  0
 10  5  1  0
  1 20  1  0
  1 21  1  0
  1 22  1  0
  2 23  1  0
  3 24  1  0
  3 25  1  0
  4 26  1  0
  4 27  1  0
  6 28  1  0
  7 29  1  0
  8 30  1  0
  9 31  1  0
 11 32  1  0
 12 33  1  0
 16 34  1  0
 16 35  1  0
 17 36  1  0
 17 37  1  0
 18 38  1  0
 18 39  1  0
 19 40  1  0
 19 41  1  0
M  END
>  <smiles>
CC1CCc2ccccc2C1NC(=O)N1CCCC1

$$$$
