mol_05a3547d902d
     RDKit          3D

 50 52  0  0  0  0  0  0  0  0999 V2000
   -3.2905    3.1857    0.0893 C   0  0  0  0  0  0  0  0  0  0  0  0
   -3.0315    2.0611   -0.9168 C   0  0  0  0  0  0  0  0  0  0  0  0
   -4.1997    1.0636   -0.9725 C   0  0  0  0  0  0  0  0  0  0  0  0
   -4.2762    0.1464    0.2596 C   0  0  0  0  0  0  0  0  0  0  0  0
   -5.4130   -0.8634    0.1113 C   0  0  0  0  0  0  0  0  0  0  0  0
   -6.5888   -0.1924   -0.0149 F   0  0  0  0  0  0  0  0  0  0  0  0
   -2.9402   -0.5728    0.4871 C   0  0  0  0  0  0  0  0  0  0  0  0
   -1.7772    0.4205    0.5934 C   0  0  0  0  0  0  0  0  0  0  0  0
   -0.4549   -0.3039    0.8555 C   0  0  0  0  0  0  0  0  0  0  0  0
    0.0584   -0.2593    1.9699 O   0  0  0  0  0  0  0  0  0  0  0  0
    0.0258   -1.0290   -0.2172 N   0  0  0  0  0  0  0  0  0  0  0  0
    1.2396   -1.7518   -0.2894 C   0  0  0  0  0  0  0  0  0  0  0  0
    1.1895   -2.8952   -1.1102 C   0  0  0  0  0  0  0  0  0  0  0  0
    2.2726   -3.7683   -1.2093 C   0  0  0  0  0  0  0  0  0  0  0  0
    3.4290   -3.5094   -0.4906 C   0  0  0  0  0  0  0  0  0  0  0  0
    3.5132   -2.3542    0.2845 C   0  0  0  0  0  0  0  0  0  0  0  0
    2.4469   -1.4282    0.3602 C   0  0  0  0  0  0  0  0  0  0  0  0
    2.7027   -0.1265    1.0952 C   0  0  0  0  0  0  0  0  0  0  0  0
    3.9516    0.5167    0.7075 N   0  0  0  0  0  0  0  0  0  0  0  0
    4.1720    1.0772   -0.5870 C   0  0  0  0  0  0  0  0  0  0  0  0
    5.4882    1.7909   -0.4013 C   0  0  0  0  0  0  0  0  0  0  0  0
    6.0781    1.1983    0.7624 O   0  0  0  0  0  0  0  0  0  0  0  0
    5.0959    0.5433    1.4558 C   0  0  0  0  0  0  0  0  0  0  0  0
    5.2633    0.0510    2.5583 O   0  0  0  0  0  0  0  0  0  0  0  0
   -1.7063    1.3363   -0.6364 C   0  0  0  0  0  0  0  0  0  0  0  0
   -3.3942    2.8174    1.1136 H   0  0  0  0  0  0  0  0  0  0  0  0
   -2.4685    3.9094    0.0761 H   0  0  0  0  0  0  0  0  0  0  0  0
   -4.2095    3.7242   -0.1659 H   0  0  0  0  0  0  0  0  0  0  0  0
   -2.9501    2.5351   -1.9039 H   0  0  0  0  0  0  0  0  0  0  0  0
   -5.1446    1.6076   -1.0938 H   0  0  0  0  0  0  0  0  0  0  0  0
   -4.0832    0.4443   -1.8722 H   0  0  0  0  0  0  0  0  0  0  0  0
   -4.5017    0.7667    1.1360 H   0  0  0  0  0  0  0  0  0  0  0  0
   -5.4903   -1.5073    0.9926 H   0  0  0  0  0  0  0  0  0  0  0  0
   -5.2875   -1.4940   -0.7743 H   0  0  0  0  0  0  0  0  0  0  0  0
   -2.9930   -1.1733    1.4042 H   0  0  0  0  0  0  0  0  0  0  0  0
   -2.7628   -1.2820   -0.3315 H   0  0  0  0  0  0  0  0  0  0  0  0
   -1.9477    1.0512    1.4765 H   0  0  0  0  0  0  0  0  0  0  0  0
   -0.6415   -1.2293   -0.9506 H   0  0  0  0  0  0  0  0  0  0  0  0
    0.2807   -3.1523   -1.6496 H   0  0  0  0  0  0  0  0  0  0  0  0
    2.2015   -4.6610   -1.8249 H   0  0  0  0  0  0  0  0  0  0  0  0
    4.2713   -4.1949   -0.5369 H   0  0  0  0  0  0  0  0  0  0  0  0
    4.4391   -2.1632    0.8266 H   0  0  0  0  0  0  0  0  0  0  0  0
    2.7115   -0.3183    2.1736 H   0  0  0  0  0  0  0  0  0  0  0  0
    1.9420    0.6230    0.8693 H   0  0  0  0  0  0  0  0  0  0  0  0
    3.3631    1.7529   -0.8780 H   0  0  0  0  0  0  0  0  0  0  0  0
    4.2564    0.2663   -1.3173 H   0  0  0  0  0  0  0  0  0  0  0  0
    6.1514    1.6676   -1.2623 H   0  0  0  0  0  0  0  0  0  0  0  0
    5.3524    2.8605   -0.2093 H   0  0  0  0  0  0  0  0  0  0  0  0
   -1.4490    0.7493   -1.5274 H   0  0  0  0  0  0  0  0  0  0  0  0
   -0.8942    2.0638   -0.5126 H   0  0  0  0  0  0  0  0  0  0  0  0
  1  2  1  0
  2  3  1  0
  3  4  1  0
  4  5  1  0
  5  6  1  0
  4  7  1  0
  7  8  1  0
  8  9  1  0
  9 10  2  0
  9 11  1  0
 11 12  1  0
 12 13  2  0
 13 14  1  0
 14 15  2  0
 15 16  1  0
 16 17  2  0
 17 18  1  0
 18 19  1  0
 19 20  1  0
 20 21  1  0
 21 22  1  0
 22 23  1  0
 23 24  2  0
  8 25  1  0
 25  2  1  0
 17 12  1  0
 23 19  1  0
  1 26  1  0
  1 27  1  0
  1 28  1  0
  2 29  1  0
  3 30  1  0
  3 31  1  0
  4 32  1  0
  5 33  1  0
  5 34  1  0
  7 35  1  0
  7 36  1  0
  8 37  1  0
 11 38  1  0
 13 39  1  0
 14 40  1  0
 15 41  1  0
 16 42  1  0
 18 43  1  0
 18 44  1  0
 20 45  1  0
 20 46  1  0
 21 47  1  0
 21 48  1  0
 25 49  1  0
 25 50  1  0
M  END
>  <smiles>
CC1CC(CF)CC(C(=O)Nc2ccccc2CN2CCOC2=O)C1

$$$$
