mol_3f1f8711569e
     RDKit          3D

 55 57  0  0  0  0  0  0  0  0999 V2000
   -0.3171   -2.1875   -2.0317 C   0  0  0  0  0  0  0  0  0  0  0  0
    0.2630   -1.0782   -1.1837 C   0  0  0  0  0  0  0  0  0  0  0  0
    1.6590   -1.0458   -0.8878 C   0  0  0  0  0  0  0  0  0  0  0  0
    2.5774   -2.1005   -1.4678 C   0  0  0  0  0  0  0  0  0  0  0  0
    2.1826   -0.0408   -0.0301 C   0  0  0  0  0  0  0  0  0  0  0  0
    3.5982    0.0048    0.3705 C   0  0  0  0  0  0  0  0  0  0  0  0
    4.1010   -0.8917    1.3281 C   0  0  0  0  0  0  0  0  0  0  0  0
    5.4423   -0.8515    1.7129 C   0  0  0  0  0  0  0  0  0  0  0  0
    6.3005    0.0896    1.1461 C   0  0  0  0  0  0  0  0  0  0  0  0
    5.8191    0.9952    0.1935 C   0  0  0  0  0  0  0  0  0  0  0  0
    6.7681    1.9793   -0.3799 C   0  0  0  0  0  0  0  0  0  0  0  0
    7.9450    2.0880   -0.0881 O   0  0  0  0  0  0  0  0  0  0  0  0
    6.2014    2.7803   -1.2991 O   0  0  0  0  0  0  0  0  0  0  0  0
    4.4718    0.9515   -0.1897 C   0  0  0  0  0  0  0  0  0  0  0  0
    1.3087    0.9332    0.4698 C   0  0  0  0  0  0  0  0  0  0  0  0
    1.7700    1.8814    1.3035 F   0  0  0  0  0  0  0  0  0  0  0  0
   -0.0423    0.9222    0.1428 C   0  0  0  0  0  0  0  0  0  0  0  0
   -0.5772   -0.0420   -0.7121 C   0  0  0  0  0  0  0  0  0  0  0  0
   -2.0288    0.1116   -1.1111 C   0  0  0  0  0  0  0  0  0  0  0  0
   -3.0529   -0.2366    0.0157 C   0  0  0  0  0  0  0  0  0  0  0  0
   -4.3955   -0.5947   -0.7031 C   0  0  0  0  0  0  0  0  0  0  0  0
   -5.5756   -0.9952    0.1690 C   0  0  0  0  0  0  0  0  0  0  0  0
   -4.1431   -1.7206   -1.5607 O   0  0  0  0  0  0  0  0  0  0  0  0
   -3.1180    0.8753    1.1489 C   0  0  0  0  0  0  0  0  0  0  0  0
   -3.8637    0.3620    2.4054 C   0  0  0  0  0  0  0  0  0  0  0  0
   -3.8202    2.1539    0.6491 C   0  0  0  0  0  0  0  0  0  0  0  0
   -1.6990    1.2588    1.6708 C   0  0  0  0  0  0  0  0  0  0  0  0
   -0.8703    1.8731    0.6795 O   0  0  0  0  0  0  0  0  0  0  0  0
   -1.3206   -2.4606   -1.6904 H   0  0  0  0  0  0  0  0  0  0  0  0
   -0.3591   -1.8767   -3.0799 H   0  0  0  0  0  0  0  0  0  0  0  0
    0.2650   -3.1106   -1.9570 H   0  0  0  0  0  0  0  0  0  0  0  0
    3.6206   -1.7745   -1.5064 H   0  0  0  0  0  0  0  0  0  0  0  0
    2.5189   -3.0157   -0.8708 H   0  0  0  0  0  0  0  0  0  0  0  0
    2.3095   -2.3232   -2.5059 H   0  0  0  0  0  0  0  0  0  0  0  0
    3.4404   -1.6273    1.7838 H   0  0  0  0  0  0  0  0  0  0  0  0
    5.8162   -1.5507    2.4567 H   0  0  0  0  0  0  0  0  0  0  0  0
    7.3447    0.1179    1.4516 H   0  0  0  0  0  0  0  0  0  0  0  0
    6.9312    3.3713   -1.5789 H   0  0  0  0  0  0  0  0  0  0  0  0
    4.0917    1.6567   -0.9265 H   0  0  0  0  0  0  0  0  0  0  0  0
   -2.2068   -0.4826   -2.0121 H   0  0  0  0  0  0  0  0  0  0  0  0
   -2.1890    1.1386   -1.4644 H   0  0  0  0  0  0  0  0  0  0  0  0
   -2.6916   -1.1627    0.4879 H   0  0  0  0  0  0  0  0  0  0  0  0
   -4.6958    0.2350   -1.3539 H   0  0  0  0  0  0  0  0  0  0  0  0
   -6.3486   -1.4947   -0.4270 H   0  0  0  0  0  0  0  0  0  0  0  0
   -6.0499   -0.1281    0.6318 H   0  0  0  0  0  0  0  0  0  0  0  0
   -5.2726   -1.7101    0.9407 H   0  0  0  0  0  0  0  0  0  0  0  0
   -4.9375   -1.8616   -2.1048 H   0  0  0  0  0  0  0  0  0  0  0  0
   -3.5333   -0.6464    2.6774 H   0  0  0  0  0  0  0  0  0  0  0  0
   -4.9469    0.3526    2.2880 H   0  0  0  0  0  0  0  0  0  0  0  0
   -3.6747    1.0097    3.2705 H   0  0  0  0  0  0  0  0  0  0  0  0
   -3.3110    2.5946   -0.2128 H   0  0  0  0  0  0  0  0  0  0  0  0
   -4.8577    1.9608    0.3598 H   0  0  0  0  0  0  0  0  0  0  0  0
   -3.8451    2.9175    1.4356 H   0  0  0  0  0  0  0  0  0  0  0  0
   -1.2097    0.3906    2.1391 H   0  0  0  0  0  0  0  0  0  0  0  0
   -1.7929    2.0051    2.4707 H   0  0  0  0  0  0  0  0  0  0  0  0
  1  2  1  0
  2  3  1  0
  3  4  1  0
  3  5  2  0
  5  6  1  0
  6  7  2  0
  7  8  1  0
  8  9  2  0
  9 10  1  0
 10 11  1  0
 11 12  2  0
 11 13  1  0
 10 14  2  0
  5 15  1  0
 15 16  1  0
 15 17  2  0
 17 18  1  0
 18 19  1  0
 19 20  1  0
 20 21  1  0
 21 22  1  0
 21 23  1  0
 20 24  1  0
 24 25  1  0
 24 26  1  0
 24 27  1  0
 27 28  1  0
 18  2  2  0
 14  6  1  0
 28 17  1  0
  1 29  1  0
  1 30  1  0
  1 31  1  0
  4 32  1  0
  4 33  1  0
  4 34  1  0
  7 35  1  0
  8 36  1  0
  9 37  1  0
 13 38  1  0
 14 39  1  0
 19 40  1  0
 19 41  1  0
 20 42  1  0
 21 43  1  0
 22 44  1  0
 22 45  1  0
 22 46  1  0
 23 47  1  0
 25 48  1  0
 25 49  1  0
 25 50  1  0
 26 51  1  0
 26 52  1  0
 26 53  1  0
 27 54  1  0
 27 55  1  0
M  END
>  <smiles>
Cc1c(C)c(-c2cccc(C(=O)O)c2)c(F)c2c1CC(C(C)O)C(C)(C)CO2

$$$$
