mol_59974c7ce716
     RDKit          3D

 78 81  0  0  0  0  0  0  0  0999 V2000
    5.5781   -3.5388   -0.0491 C   0  0  0  0  0  0  0  0  0  0  0  0
    4.6028   -2.9295   -1.0188 C   0  0  0  0  0  0  0  0  0  0  0  0
    4.8864   -1.9629   -1.7163 O   0  0  0  0  0  0  0  0  0  0  0  0
    3.3647   -3.5307   -1.0090 N   0  0  0  0  0  0  0  0  0  0  0  0
    2.2654   -3.1377   -1.8922 C   0  0  0  0  0  0  0  0  0  0  0  0
    2.5858   -3.5484   -3.3341 C   0  0  0  0  0  0  0  0  0  0  0  0
    1.8613   -1.6334   -1.7881 C   0  0  0  0  0  0  0  0  0  0  0  0
    1.6616   -1.1935   -0.3349 C   0  0  0  0  0  0  0  0  0  0  0  0
    1.3189    0.2928   -0.2431 C   0  0  0  0  0  0  0  0  0  0  0  0
    0.3999    0.8327   -1.3570 C   0  0  0  0  0  0  0  0  0  0  0  0
   -0.7074    1.6528   -0.7929 N   0  0  0  0  0  0  0  0  0  0  0  0
   -1.7834    1.1393   -0.0711 C   0  0  0  0  0  0  0  0  0  0  0  0
   -1.9129   -0.2277    0.2276 C   0  0  0  0  0  0  0  0  0  0  0  0
   -2.9726   -0.7612    0.9883 C   0  0  0  0  0  0  0  0  0  0  0  0
   -3.0577   -2.2473    1.2868 C   0  0  0  0  0  0  0  0  0  0  0  0
   -1.9332   -2.6995    2.2428 C   0  0  0  0  0  0  0  0  0  0  0  0
   -1.5642   -4.1782    2.0929 C   0  0  0  0  0  0  0  0  0  0  0  0
   -2.7598   -5.0226    1.6756 C   0  0  0  0  0  0  0  0  0  0  0  0
   -3.3296   -4.5809    0.3264 C   0  0  0  0  0  0  0  0  0  0  0  0
   -3.0830   -3.1028    0.0109 C   0  0  0  0  0  0  0  0  0  0  0  0
   -3.9483    0.1081    1.4710 C   0  0  0  0  0  0  0  0  0  0  0  0
   -3.8741    1.4645    1.1745 C   0  0  0  0  0  0  0  0  0  0  0  0
   -2.8193    1.9766    0.3963 C   0  0  0  0  0  0  0  0  0  0  0  0
   -2.8306    3.4522    0.0894 C   0  0  0  0  0  0  0  0  0  0  0  0
   -1.9657    3.7555   -1.1187 C   0  0  0  0  0  0  0  0  0  0  0  0
   -0.5852    3.1188   -0.9615 C   0  0  0  0  0  0  0  0  0  0  0  0
    0.2635    3.7225    0.1970 C   0  0  0  0  0  0  0  0  0  0  0  0
    0.4750    5.1701    0.0543 N   0  0  0  0  0  0  0  0  0  0  0  0
    1.1550    5.7701    1.2072 C   0  0  0  0  0  0  0  0  0  0  0  0
    1.0165    7.2893    1.0893 C   0  0  0  0  0  0  0  0  0  0  0  0
    2.6347    5.3889    1.2805 C   0  0  0  0  0  0  0  0  0  0  0  0
   -0.0769   -0.1884   -2.4153 C   0  0  0  0  0  0  0  0  0  0  0  0
   -1.0003    0.0052   -3.2049 O   0  0  0  0  0  0  0  0  0  0  0  0
    0.6262   -1.3601   -2.5116 N   0  0  0  0  0  0  0  0  0  0  0  0
    5.4593   -4.6254   -0.0111 H   0  0  0  0  0  0  0  0  0  0  0  0
    6.5993   -3.3124   -0.3676 H   0  0  0  0  0  0  0  0  0  0  0  0
    5.4055   -3.1203    0.9460 H   0  0  0  0  0  0  0  0  0  0  0  0
    3.2160   -4.3232   -0.3965 H   0  0  0  0  0  0  0  0  0  0  0  0
    1.4100   -3.7426   -1.5629 H   0  0  0  0  0  0  0  0  0  0  0  0
    1.7167   -3.4355   -3.9886 H   0  0  0  0  0  0  0  0  0  0  0  0
    2.8943   -4.5991   -3.3762 H   0  0  0  0  0  0  0  0  0  0  0  0
    3.4018   -2.9489   -3.7510 H   0  0  0  0  0  0  0  0  0  0  0  0
    2.6319   -1.0047   -2.2500 H   0  0  0  0  0  0  0  0  0  0  0  0
    2.5596   -1.3740    0.2657 H   0  0  0  0  0  0  0  0  0  0  0  0
    0.8605   -1.7853    0.1238 H   0  0  0  0  0  0  0  0  0  0  0  0
    0.9219    0.5056    0.7571 H   0  0  0  0  0  0  0  0  0  0  0  0
    2.2613    0.8567   -0.2911 H   0  0  0  0  0  0  0  0  0  0  0  0
    1.0384    1.4980   -1.9572 H   0  0  0  0  0  0  0  0  0  0  0  0
   -1.1751   -0.9291   -0.1355 H   0  0  0  0  0  0  0  0  0  0  0  0
   -4.0123   -2.4302    1.8018 H   0  0  0  0  0  0  0  0  0  0  0  0
   -1.0194   -2.1068    2.1124 H   0  0  0  0  0  0  0  0  0  0  0  0
   -2.2603   -2.5092    3.2737 H   0  0  0  0  0  0  0  0  0  0  0  0
   -0.7714   -4.2797    1.3408 H   0  0  0  0  0  0  0  0  0  0  0  0
   -1.1485   -4.5493    3.0365 H   0  0  0  0  0  0  0  0  0  0  0  0
   -2.4794   -6.0809    1.6269 H   0  0  0  0  0  0  0  0  0  0  0  0
   -3.5404   -4.9429    2.4428 H   0  0  0  0  0  0  0  0  0  0  0  0
   -2.8941   -5.1878   -0.4768 H   0  0  0  0  0  0  0  0  0  0  0  0
   -4.4065   -4.7882    0.3149 H   0  0  0  0  0  0  0  0  0  0  0  0
   -3.8547   -2.7474   -0.6832 H   0  0  0  0  0  0  0  0  0  0  0  0
   -2.1282   -3.0143   -0.5238 H   0  0  0  0  0  0  0  0  0  0  0  0
   -4.7793   -0.2606    2.0663 H   0  0  0  0  0  0  0  0  0  0  0  0
   -4.6524    2.1301    1.5407 H   0  0  0  0  0  0  0  0  0  0  0  0
   -2.4839    4.0051    0.9699 H   0  0  0  0  0  0  0  0  0  0  0  0
   -3.8546    3.7830   -0.1227 H   0  0  0  0  0  0  0  0  0  0  0  0
   -2.4457    3.3499   -2.0202 H   0  0  0  0  0  0  0  0  0  0  0  0
   -1.8927    4.8386   -1.2662 H   0  0  0  0  0  0  0  0  0  0  0  0
   -0.0497    3.3222   -1.8990 H   0  0  0  0  0  0  0  0  0  0  0  0
   -0.2150    3.5059    1.1593 H   0  0  0  0  0  0  0  0  0  0  0  0
    1.2340    3.2141    0.2093 H   0  0  0  0  0  0  0  0  0  0  0  0
    1.0002    5.3595   -0.7991 H   0  0  0  0  0  0  0  0  0  0  0  0
    0.6559    5.4639    2.1348 H   0  0  0  0  0  0  0  0  0  0  0  0
   -0.0380    7.5862    1.0586 H   0  0  0  0  0  0  0  0  0  0  0  0
    1.4741    7.7871    1.9512 H   0  0  0  0  0  0  0  0  0  0  0  0
    1.5026    7.6707    0.1840 H   0  0  0  0  0  0  0  0  0  0  0  0
    2.7664    4.3172    1.4589 H   0  0  0  0  0  0  0  0  0  0  0  0
    3.1619    5.6474    0.3554 H   0  0  0  0  0  0  0  0  0  0  0  0
    3.1278    5.9173    2.1040 H   0  0  0  0  0  0  0  0  0  0  0  0
    0.3104   -1.9563   -3.2677 H   0  0  0  0  0  0  0  0  0  0  0  0
  1  2  1  0
  2  3  2  0
  2  4  1  0
  4  5  1  0
  5  6  1  0
  5  7  1  0
  7  8  1  0
  8  9  1  0
  9 10  1  0
 10 11  1  0
 11 12  1  0
 12 13  1  0
 13 14  2  0
 14 15  1  0
 15 16  1  0
 16 17  1  0
 17 18  1  0
 18 19  1  0
 19 20  1  0
 14 21  1  0
 21 22  2  0
 22 23  1  0
 23 24  1  0
 24 25  1  0
 25 26  1  0
 26 27  1  0
 27 28  1  0
 28 29  1  0
 29 30  1  0
 29 31  1  0
 10 32  1  0
 32 33  2  0
 32 34  1  0
 34  7  1  0
 26 11  1  0
 23 12  2  0
 20 15  1  0
  1 35  1  0
  1 36  1  0
  1 37  1  0
  4 38  1  0
  5 39  1  0
  6 40  1  0
  6 41  1  0
  6 42  1  0
  7 43  1  0
  8 44  1  0
  8 45  1  0
  9 46  1  0
  9 47  1  0
 10 48  1  0
 13 49  1  0
 15 50  1  0
 16 51  1  0
 16 52  1  0
 17 53  1  0
 17 54  1  0
 18 55  1  0
 18 56  1  0
 19 57  1  0
 19 58  1  0
 20 59  1  0
 20 60  1  0
 21 61  1  0
 22 62  1  0
 24 63  1  0
 24 64  1  0
 25 65  1  0
 25 66  1  0
 26 67  1  0
 27 68  1  0
 27 69  1  0
 28 70  1  0
 29 71  1  0
 30 72  1  0
 30 73  1  0
 30 74  1  0
 31 75  1  0
 31 76  1  0
 31 77  1  0
 34 78  1  0
M  END
>  <smiles>
CC(=O)NC(C)C1CCC(N2c3cc(C4CCCCC4)ccc3CCC2CNC(C)C)C(=O)N1

$$$$
