mol_e3d8db56e668
     RDKit          3D

 48 50  0  0  0  0  0  0  0  0999 V2000
   -4.2490   -4.4423    0.4499 C   0  0  0  0  0  0  0  0  0  0  0  0
   -4.0189   -3.1604   -0.1359 O   0  0  0  0  0  0  0  0  0  0  0  0
   -2.8438   -2.5817    0.2356 C   0  0  0  0  0  0  0  0  0  0  0  0
   -2.0476   -3.1096    1.0010 O   0  0  0  0  0  0  0  0  0  0  0  0
   -2.6560   -1.3440   -0.3467 N   0  0  0  0  0  0  0  0  0  0  0  0
   -3.5765   -0.7512   -1.3108 C   0  0  0  0  0  0  0  0  0  0  0  0
   -4.0545    0.6137   -0.8331 C   0  0  0  0  0  0  0  0  0  0  0  0
   -2.9273    1.4757   -0.3186 C   0  0  0  0  0  0  0  0  0  0  0  0
   -3.1428    2.8557   -0.1640 C   0  0  0  0  0  0  0  0  0  0  0  0
   -2.1587    3.6530    0.4106 C   0  0  0  0  0  0  0  0  0  0  0  0
   -2.3337    4.9953    0.5713 O   0  0  0  0  0  0  0  0  0  0  0  0
   -0.9699    3.0988    0.8595 C   0  0  0  0  0  0  0  0  0  0  0  0
   -0.7522    1.7286    0.7186 C   0  0  0  0  0  0  0  0  0  0  0  0
   -1.7101    0.9007    0.1051 C   0  0  0  0  0  0  0  0  0  0  0  0
   -1.4184   -0.5942   -0.0655 C   0  0  0  0  0  0  0  0  0  0  0  0
   -0.3787   -0.8707   -1.1948 C   0  0  0  0  0  0  0  0  0  0  0  0
    0.9225   -0.2403   -1.0315 N   0  0  0  0  0  0  0  0  0  0  0  0
    1.8840   -0.7669   -0.1994 C   0  0  0  0  0  0  0  0  0  0  0  0
    1.7263   -1.7996    0.4392 O   0  0  0  0  0  0  0  0  0  0  0  0
    3.1734   -0.0258   -0.1098 C   0  0  0  0  0  0  0  0  0  0  0  0
    3.2611    1.3550   -0.3250 C   0  0  0  0  0  0  0  0  0  0  0  0
    4.4932    2.0027   -0.2148 C   0  0  0  0  0  0  0  0  0  0  0  0
    5.6400    1.2783    0.1146 C   0  0  0  0  0  0  0  0  0  0  0  0
    5.5709   -0.1048    0.3401 C   0  0  0  0  0  0  0  0  0  0  0  0
    6.8021   -0.8864    0.7286 C   0  0  0  0  0  0  0  0  0  0  0  0
    6.8062   -2.1558    0.2361 F   0  0  0  0  0  0  0  0  0  0  0  0
    6.9384   -1.0032    2.0774 F   0  0  0  0  0  0  0  0  0  0  0  0
    7.9571   -0.3147    0.2847 F   0  0  0  0  0  0  0  0  0  0  0  0
    4.3257   -0.7462    0.2364 C   0  0  0  0  0  0  0  0  0  0  0  0
   -5.2129   -4.8109    0.0881 H   0  0  0  0  0  0  0  0  0  0  0  0
   -3.4719   -5.1497    0.1438 H   0  0  0  0  0  0  0  0  0  0  0  0
   -4.2970   -4.3635    1.5406 H   0  0  0  0  0  0  0  0  0  0  0  0
   -3.0423   -0.6561   -2.2633 H   0  0  0  0  0  0  0  0  0  0  0  0
   -4.4416   -1.3923   -1.5026 H   0  0  0  0  0  0  0  0  0  0  0  0
   -4.5752    1.1191   -1.6548 H   0  0  0  0  0  0  0  0  0  0  0  0
   -4.7712    0.4790   -0.0130 H   0  0  0  0  0  0  0  0  0  0  0  0
   -4.0874    3.2896   -0.4794 H   0  0  0  0  0  0  0  0  0  0  0  0
   -3.2258    5.2310    0.2687 H   0  0  0  0  0  0  0  0  0  0  0  0
   -0.2213    3.7271    1.3334 H   0  0  0  0  0  0  0  0  0  0  0  0
    0.1699    1.3033    1.1093 H   0  0  0  0  0  0  0  0  0  0  0  0
   -1.0055   -0.9543    0.8855 H   0  0  0  0  0  0  0  0  0  0  0  0
   -0.7607   -0.5172   -2.1593 H   0  0  0  0  0  0  0  0  0  0  0  0
   -0.2216   -1.9523   -1.2894 H   0  0  0  0  0  0  0  0  0  0  0  0
    1.1183    0.5779   -1.5905 H   0  0  0  0  0  0  0  0  0  0  0  0
    2.3810    1.9508   -0.5483 H   0  0  0  0  0  0  0  0  0  0  0  0
    4.5585    3.0770   -0.3746 H   0  0  0  0  0  0  0  0  0  0  0  0
    6.5926    1.8001    0.2030 H   0  0  0  0  0  0  0  0  0  0  0  0
    4.2513   -1.8183    0.4245 H   0  0  0  0  0  0  0  0  0  0  0  0
  1  2  1  0
  2  3  1  0
  3  4  2  0
  3  5  1  0
  5  6  1  0
  6  7  1  0
  7  8  1  0
  8  9  1  0
  9 10  2  0
 10 11  1  0
 10 12  1  0
 12 13  2  0
 13 14  1  0
 14 15  1  0
 15 16  1  0
 16 17  1  0
 17 18  1  0
 18 19  2  0
 18 20  1  0
 20 21  1  0
 21 22  2  0
 22 23  1  0
 23 24  2  0
 24 25  1  0
 25 26  1  0
 25 27  1  0
 25 28  1  0
 24 29  1  0
 15  5  1  0
 29 20  2  0
 14  8  2  0
  1 30  1  0
  1 31  1  0
  1 32  1  0
  6 33  1  0
  6 34  1  0
  7 35  1  0
  7 36  1  0
  9 37  1  0
 11 38  1  0
 12 39  1  0
 13 40  1  0
 15 41  1  0
 16 42  1  0
 16 43  1  0
 17 44  1  0
 21 45  1  0
 22 46  1  0
 23 47  1  0
 29 48  1  0
M  END
>  <smiles>
COC(=O)N1CCc2cc(O)ccc2C1CNC(=O)c1cccc(C(F)(F)F)c1

$$$$
