mol_e7e14a1ca15c
     RDKit          3D

 63 67  0  0  0  0  0  0  0  0999 V2000
   -1.2798   -1.7134    2.3038 C   0  0  0  0  0  0  0  0  0  0  0  0
   -2.3048   -1.0990    1.3443 C   0  0  0  0  0  0  0  0  0  0  0  0
   -3.6763   -1.7121    1.6981 C   0  0  0  0  0  0  0  0  0  0  0  0
   -1.9957   -1.1783   -0.2040 C   0  0  0  0  0  0  0  0  0  0  0  0
   -1.7742   -2.6382   -0.6609 C   0  0  0  0  0  0  0  0  0  0  0  0
   -0.2528   -2.8638   -0.4266 C   0  0  0  0  0  0  0  0  0  0  0  0
    0.3207   -1.5190   -0.3617 N   0  0  0  0  0  0  0  0  0  0  0  0
    1.6439   -1.2822   -0.0991 C   0  0  0  0  0  0  0  0  0  0  0  0
    2.4134   -2.2109    0.1389 O   0  0  0  0  0  0  0  0  0  0  0  0
    2.0913    0.1891   -0.1082 C   0  0  0  0  0  0  0  0  0  0  0  0
    3.6300    0.3872    0.0435 C   0  0  0  0  0  0  0  0  0  0  0  0
    4.2359   -0.1206    1.3593 C   0  0  0  0  0  0  0  0  0  0  0  0
    5.6850    0.3342    1.4527 C   0  0  0  0  0  0  0  0  0  0  0  0
    6.4379    0.0922    0.2450 N   0  0  0  0  0  0  0  0  0  0  0  0
    5.9144   -0.0262   -1.0088 C   0  0  0  0  0  0  0  0  0  0  0  0
    6.6589   -0.0533   -1.9863 O   0  0  0  0  0  0  0  0  0  0  0  0
    4.4158   -0.2032   -1.1359 C   0  0  0  0  0  0  0  0  0  0  0  0
    1.3345    0.9750    0.9882 C   0  0  0  0  0  0  0  0  0  0  0  0
   -0.1016    1.4408    0.6706 C   0  0  0  0  0  0  0  0  0  0  0  0
   -0.7179    0.8997   -0.6148 C   0  0  0  0  0  0  0  0  0  0  0  0
   -0.6822   -0.6017   -0.7697 C   0  0  0  0  0  0  0  0  0  0  0  0
   -2.2385    1.1839   -0.9096 C   0  0  0  0  0  0  0  0  0  0  0  0
   -2.4216    1.9140   -2.2581 C   0  0  0  0  0  0  0  0  0  0  0  0
   -3.8549    2.4314   -2.2301 C   0  0  0  0  0  0  0  0  0  0  0  0
   -4.1831    2.6443   -0.7552 C   0  0  0  0  0  0  0  0  0  0  0  0
   -2.9536    2.1734    0.0228 C   0  0  0  0  0  0  0  0  0  0  0  0
   -2.9441   -0.2377   -0.9735 C   0  0  0  0  0  0  0  0  0  0  0  0
   -0.2778   -1.3126    2.1530 H   0  0  0  0  0  0  0  0  0  0  0  0
   -1.5509   -1.4817    3.3410 H   0  0  0  0  0  0  0  0  0  0  0  0
   -1.2484   -2.8037    2.2256 H   0  0  0  0  0  0  0  0  0  0  0  0
   -2.3762   -0.0494    1.6300 H   0  0  0  0  0  0  0  0  0  0  0  0
   -3.8987   -1.5572    2.7605 H   0  0  0  0  0  0  0  0  0  0  0  0
   -4.4954   -1.2549    1.1389 H   0  0  0  0  0  0  0  0  0  0  0  0
   -3.7014   -2.7905    1.5163 H   0  0  0  0  0  0  0  0  0  0  0  0
   -1.9966   -2.7443   -1.7305 H   0  0  0  0  0  0  0  0  0  0  0  0
   -2.3748   -3.3847   -0.1368 H   0  0  0  0  0  0  0  0  0  0  0  0
    0.2006   -3.4104   -1.2605 H   0  0  0  0  0  0  0  0  0  0  0  0
   -0.0294   -3.4056    0.4958 H   0  0  0  0  0  0  0  0  0  0  0  0
    1.8445    0.5969   -1.0952 H   0  0  0  0  0  0  0  0  0  0  0  0
    3.8010    1.4746    0.0134 H   0  0  0  0  0  0  0  0  0  0  0  0
    3.6867    0.2558    2.2282 H   0  0  0  0  0  0  0  0  0  0  0  0
    4.2081   -1.2140    1.4069 H   0  0  0  0  0  0  0  0  0  0  0  0
    5.7330    1.4122    1.6434 H   0  0  0  0  0  0  0  0  0  0  0  0
    6.1988   -0.1724    2.2758 H   0  0  0  0  0  0  0  0  0  0  0  0
    7.4482    0.1630    0.2684 H   0  0  0  0  0  0  0  0  0  0  0  0
    4.0993    0.2825   -2.0664 H   0  0  0  0  0  0  0  0  0  0  0  0
    4.2375   -1.2776   -1.2449 H   0  0  0  0  0  0  0  0  0  0  0  0
    1.9047    1.8742    1.2563 H   0  0  0  0  0  0  0  0  0  0  0  0
    1.3014    0.3720    1.9047 H   0  0  0  0  0  0  0  0  0  0  0  0
   -0.7273    1.2380    1.5431 H   0  0  0  0  0  0  0  0  0  0  0  0
   -0.0789    2.5360    0.5922 H   0  0  0  0  0  0  0  0  0  0  0  0
   -0.1314    1.3396   -1.4331 H   0  0  0  0  0  0  0  0  0  0  0  0
   -0.6804   -0.7436   -1.8679 H   0  0  0  0  0  0  0  0  0  0  0  0
   -2.2350    1.2747   -3.1271 H   0  0  0  0  0  0  0  0  0  0  0  0
   -1.7342    2.7675   -2.3254 H   0  0  0  0  0  0  0  0  0  0  0  0
   -4.5386    1.6912   -2.6617 H   0  0  0  0  0  0  0  0  0  0  0  0
   -3.9603    3.3533   -2.8105 H   0  0  0  0  0  0  0  0  0  0  0  0
   -4.4075    3.6937   -0.5375 H   0  0  0  0  0  0  0  0  0  0  0  0
   -5.0662    2.0575   -0.4783 H   0  0  0  0  0  0  0  0  0  0  0  0
   -3.2444    1.7529    0.9874 H   0  0  0  0  0  0  0  0  0  0  0  0
   -2.3173    3.0440    0.2223 H   0  0  0  0  0  0  0  0  0  0  0  0
   -3.0324   -0.5747   -2.0149 H   0  0  0  0  0  0  0  0  0  0  0  0
   -3.9606   -0.2078   -0.5770 H   0  0  0  0  0  0  0  0  0  0  0  0
  1  2  1  0
  2  3  1  0
  2  4  1  0
  4  5  1  0
  5  6  1  0
  6  7  1  0
  7  8  1  0
  8  9  2  0
  8 10  1  0
 10 11  1  0
 11 12  1  0
 12 13  1  0
 13 14  1  0
 14 15  1  0
 15 16  2  0
 15 17  1  0
 10 18  1  0
 18 19  1  0
 19 20  1  0
 20 21  1  0
 20 22  1  0
 22 23  1  0
 23 24  1  0
 24 25  1  0
 25 26  1  0
 22 27  1  0
 21  4  1  0
 26 22  1  0
 27  4  1  0
 21  7  1  0
 17 11  1  0
  1 28  1  0
  1 29  1  0
  1 30  1  0
  2 31  1  0
  3 32  1  0
  3 33  1  0
  3 34  1  0
  5 35  1  0
  5 36  1  0
  6 37  1  0
  6 38  1  0
 10 39  1  0
 11 40  1  0
 12 41  1  0
 12 42  1  0
 13 43  1  0
 13 44  1  0
 14 45  1  0
 17 46  1  0
 17 47  1  0
 18 48  1  0
 18 49  1  0
 19 50  1  0
 19 51  1  0
 20 52  1  0
 21 53  1  0
 23 54  1  0
 23 55  1  0
 24 56  1  0
 24 57  1  0
 25 58  1  0
 25 59  1  0
 26 60  1  0
 26 61  1  0
 27 62  1  0
 27 63  1  0
M  END
>  <smiles>
CC(C)C12CCN3C(=O)C(C4CCNC(=O)C4)CCC(C31)C1(CCCC1)C2

$$$$
