mol_d0a2f35c7c0f
     RDKit          3D

 51 53  0  0  0  0  0  0  0  0999 V2000
   -1.9352    0.1367    3.0256 O   0  0  0  0  0  0  0  0  0  0  0  0
   -1.3880   -0.2011    1.9862 C   0  0  0  0  0  0  0  0  0  0  0  0
   -1.7830    0.1569    0.7216 N   0  0  0  0  0  0  0  0  0  0  0  0
   -2.9529    0.9898    0.4803 C   0  0  0  0  0  0  0  0  0  0  0  0
   -2.7616    1.8518   -0.7735 C   0  0  0  0  0  0  0  0  0  0  0  0
   -2.8321    1.0427   -2.0687 C   0  0  0  0  0  0  0  0  0  0  0  0
   -4.1051    0.2056   -2.1439 C   0  0  0  0  0  0  0  0  0  0  0  0
   -4.2723   -0.6821   -0.9146 C   0  0  0  0  0  0  0  0  0  0  0  0
   -4.2208    0.1315    0.3782 C   0  0  0  0  0  0  0  0  0  0  0  0
   -0.2171   -1.1079    1.9818 C   0  0  0  0  0  0  0  0  0  0  0  0
    1.0437   -0.6669    1.7732 C   0  0  0  0  0  0  0  0  0  0  0  0
    1.4055    0.8016    1.5670 C   0  0  0  0  0  0  0  0  0  0  0  0
    2.1690    1.0743    0.2853 C   0  0  0  0  0  0  0  0  0  0  0  0
    1.4980    1.1676   -0.9403 C   0  0  0  0  0  0  0  0  0  0  0  0
    2.2014    1.4136   -2.1195 C   0  0  0  0  0  0  0  0  0  0  0  0
    3.5870    1.5662   -2.0884 C   0  0  0  0  0  0  0  0  0  0  0  0
    4.2849    1.4703   -0.8762 C   0  0  0  0  0  0  0  0  0  0  0  0
    5.7813    1.6550   -0.8321 C   0  0  0  0  0  0  0  0  0  0  0  0
    6.3842    0.8772    0.1111 F   0  0  0  0  0  0  0  0  0  0  0  0
    6.3968    1.3509   -2.0093 F   0  0  0  0  0  0  0  0  0  0  0  0
    6.1385    2.9366   -0.5434 F   0  0  0  0  0  0  0  0  0  0  0  0
    3.5639    1.2330    0.3063 C   0  0  0  0  0  0  0  0  0  0  0  0
    2.0940   -1.5792    1.8077 N   0  0  0  0  0  0  0  0  0  0  0  0
    1.9545   -2.9656    2.2078 C   0  0  0  0  0  0  0  0  0  0  0  0
    0.5912   -3.4866    1.7672 C   0  0  0  0  0  0  0  0  0  0  0  0
   -0.5290   -2.5570    2.2443 C   0  0  0  0  0  0  0  0  0  0  0  0
   -1.3039   -0.2671   -0.0620 H   0  0  0  0  0  0  0  0  0  0  0  0
   -3.0600    1.6585    1.3435 H   0  0  0  0  0  0  0  0  0  0  0  0
   -3.5471    2.6181   -0.7978 H   0  0  0  0  0  0  0  0  0  0  0  0
   -1.8035    2.3832   -0.7275 H   0  0  0  0  0  0  0  0  0  0  0  0
   -2.7897    1.7231   -2.9270 H   0  0  0  0  0  0  0  0  0  0  0  0
   -1.9578    0.3857   -2.1463 H   0  0  0  0  0  0  0  0  0  0  0  0
   -4.9729    0.8707   -2.2331 H   0  0  0  0  0  0  0  0  0  0  0  0
   -4.0854   -0.4148   -3.0470 H   0  0  0  0  0  0  0  0  0  0  0  0
   -5.2288   -1.2139   -0.9741 H   0  0  0  0  0  0  0  0  0  0  0  0
   -3.4855   -1.4461   -0.9038 H   0  0  0  0  0  0  0  0  0  0  0  0
   -4.2969   -0.5465    1.2366 H   0  0  0  0  0  0  0  0  0  0  0  0
   -5.0986    0.7893    0.4154 H   0  0  0  0  0  0  0  0  0  0  0  0
    2.0133    1.1238    2.4236 H   0  0  0  0  0  0  0  0  0  0  0  0
    0.5281    1.4579    1.5867 H   0  0  0  0  0  0  0  0  0  0  0  0
    0.4189    1.0578   -0.9833 H   0  0  0  0  0  0  0  0  0  0  0  0
    1.6676    1.4889   -3.0638 H   0  0  0  0  0  0  0  0  0  0  0  0
    4.1227    1.7607   -3.0164 H   0  0  0  0  0  0  0  0  0  0  0  0
    4.0985    1.1714    1.2543 H   0  0  0  0  0  0  0  0  0  0  0  0
    3.0308   -1.2246    1.6385 H   0  0  0  0  0  0  0  0  0  0  0  0
    2.7531   -3.5636    1.7570 H   0  0  0  0  0  0  0  0  0  0  0  0
    2.0560   -3.0402    3.2964 H   0  0  0  0  0  0  0  0  0  0  0  0
    0.4293   -4.5003    2.1499 H   0  0  0  0  0  0  0  0  0  0  0  0
    0.5633   -3.5485    0.6712 H   0  0  0  0  0  0  0  0  0  0  0  0
   -0.6891   -2.6945    3.3208 H   0  0  0  0  0  0  0  0  0  0  0  0
   -1.4592   -2.8441    1.7393 H   0  0  0  0  0  0  0  0  0  0  0  0
  1  2  2  0
  2  3  1  0
  3  4  1  0
  4  5  1  0
  5  6  1  0
  6  7  1  0
  7  8  1  0
  8  9  1  0
  2 10  1  0
 10 11  2  0
 11 12  1  0
 12 13  1  0
 13 14  2  0
 14 15  1  0
 15 16  2  0
 16 17  1  0
 17 18  1  0
 18 19  1  0
 18 20  1  0
 18 21  1  0
 17 22  2  0
 11 23  1  0
 23 24  1  0
 24 25  1  0
 25 26  1  0
  9  4  1  0
 26 10  1  0
 22 13  1  0
  3 27  1  0
  4 28  1  0
  5 29  1  0
  5 30  1  0
  6 31  1  0
  6 32  1  0
  7 33  1  0
  7 34  1  0
  8 35  1  0
  8 36  1  0
  9 37  1  0
  9 38  1  0
 12 39  1  0
 12 40  1  0
 14 41  1  0
 15 42  1  0
 16 43  1  0
 22 44  1  0
 23 45  1  0
 24 46  1  0
 24 47  1  0
 25 48  1  0
 25 49  1  0
 26 50  1  0
 26 51  1  0
M  END
>  <smiles>
O=C(NC1CCCCC1)C1=C(Cc2cccc(C(F)(F)F)c2)NCCC1

$$$$
