mol_66ddea507b6f
     RDKit          3D

 54 59  0  0  0  0  0  0  0  0999 V2000
    6.9308    0.4170   -2.4831 C   0  0  0  0  0  0  0  0  0  0  0  0
    5.5344    0.4924   -2.2246 O   0  0  0  0  0  0  0  0  0  0  0  0
    5.1393    0.3578   -0.9205 C   0  0  0  0  0  0  0  0  0  0  0  0
    5.9786    0.1526    0.1699 C   0  0  0  0  0  0  0  0  0  0  0  0
    5.4332    0.0408    1.4470 C   0  0  0  0  0  0  0  0  0  0  0  0
    4.0508    0.1335    1.6372 C   0  0  0  0  0  0  0  0  0  0  0  0
    3.1804    0.3406    0.5596 C   0  0  0  0  0  0  0  0  0  0  0  0
    1.7543    0.4217    0.7501 N   0  0  0  0  0  0  0  0  0  0  0  0
    0.8805    0.1612   -0.4083 C   0  0  0  0  0  0  0  0  0  0  0  0
   -0.3785   -0.5018    0.0579 C   0  0  0  0  0  0  0  0  0  0  0  0
   -0.9771   -1.5847   -0.4742 C   0  0  0  0  0  0  0  0  0  0  0  0
   -2.0665   -2.3858    0.2006 C   0  0  0  0  0  0  0  0  0  0  0  0
   -3.4542   -1.7381    0.2137 C   0  0  0  0  0  0  0  0  0  0  0  0
   -3.4414   -0.2013    0.1282 C   0  0  0  0  0  0  0  0  0  0  0  0
   -3.3781    0.3092   -1.3558 C   0  0  0  0  0  0  0  0  0  0  0  0
   -2.2531   -0.0052   -2.3718 C   0  0  0  0  0  0  0  0  0  0  0  0
   -1.8425   -1.4737   -2.5944 C   0  0  0  0  0  0  0  0  0  0  0  0
   -0.7280   -1.9125   -1.7891 O   0  0  0  0  0  0  0  0  0  0  0  0
   -4.7754    0.3871    0.7211 C   0  0  0  0  0  0  0  0  0  0  0  0
   -4.5425    0.7522    2.1905 C   0  0  0  0  0  0  0  0  0  0  0  0
   -3.0663    0.9662    2.2214 C   0  0  0  0  0  0  0  0  0  0  0  0
   -2.3260    1.5671    3.2306 C   0  0  0  0  0  0  0  0  0  0  0  0
   -0.9303    1.5657    3.1335 C   0  0  0  0  0  0  0  0  0  0  0  0
   -0.2906    0.9085    2.0675 C   0  0  0  0  0  0  0  0  0  0  0  0
   -1.0518    0.2449    1.1080 C   0  0  0  0  0  0  0  0  0  0  0  0
   -2.4428    0.3660    1.1264 C   0  0  0  0  0  0  0  0  0  0  0  0
    1.1965    0.8934    1.9601 C   0  0  0  0  0  0  0  0  0  0  0  0
    1.8264    1.3233    2.9248 O   0  0  0  0  0  0  0  0  0  0  0  0
    3.7541    0.4474   -0.7191 C   0  0  0  0  0  0  0  0  0  0  0  0
    7.3314   -0.5636   -2.2056 H   0  0  0  0  0  0  0  0  0  0  0  0
    7.4705    1.2237   -1.9760 H   0  0  0  0  0  0  0  0  0  0  0  0
    7.0784    0.5439   -3.5599 H   0  0  0  0  0  0  0  0  0  0  0  0
    7.0549    0.0763    0.0641 H   0  0  0  0  0  0  0  0  0  0  0  0
    6.0816   -0.1232    2.3041 H   0  0  0  0  0  0  0  0  0  0  0  0
    3.6750    0.0092    2.6492 H   0  0  0  0  0  0  0  0  0  0  0  0
    0.6654    1.1215   -0.8920 H   0  0  0  0  0  0  0  0  0  0  0  0
    1.3824   -0.4999   -1.1220 H   0  0  0  0  0  0  0  0  0  0  0  0
   -2.1336   -3.3828   -0.2532 H   0  0  0  0  0  0  0  0  0  0  0  0
   -1.7570   -2.5778    1.2378 H   0  0  0  0  0  0  0  0  0  0  0  0
   -3.9568   -2.0660    1.1344 H   0  0  0  0  0  0  0  0  0  0  0  0
   -4.0635   -2.1479   -0.6019 H   0  0  0  0  0  0  0  0  0  0  0  0
   -3.4412    1.4072   -1.3322 H   0  0  0  0  0  0  0  0  0  0  0  0
   -4.3100   -0.0227   -1.8381 H   0  0  0  0  0  0  0  0  0  0  0  0
   -2.6255    0.3637   -3.3382 H   0  0  0  0  0  0  0  0  0  0  0  0
   -1.3783    0.6152   -2.1541 H   0  0  0  0  0  0  0  0  0  0  0  0
   -2.6880   -2.1627   -2.4905 H   0  0  0  0  0  0  0  0  0  0  0  0
   -1.4973   -1.5743   -3.6302 H   0  0  0  0  0  0  0  0  0  0  0  0
   -5.6258   -0.2944    0.6024 H   0  0  0  0  0  0  0  0  0  0  0  0
   -5.0530    1.3121    0.1956 H   0  0  0  0  0  0  0  0  0  0  0  0
   -4.8154   -0.0785    2.8494 H   0  0  0  0  0  0  0  0  0  0  0  0
   -5.1008    1.6490    2.4740 H   0  0  0  0  0  0  0  0  0  0  0  0
   -2.8143    2.0286    4.0841 H   0  0  0  0  0  0  0  0  0  0  0  0
   -0.3370    2.0565    3.9027 H   0  0  0  0  0  0  0  0  0  0  0  0
    3.1438    0.6414   -1.5961 H   0  0  0  0  0  0  0  0  0  0  0  0
  1  2  1  0
  2  3  1  0
  3  4  1  0
  4  5  2  0
  5  6  1  0
  6  7  2  0
  7  8  1  0
  8  9  1  0
  9 10  1  0
 10 11  2  0
 11 12  1  0
 12 13  1  0
 13 14  1  0
 14 15  1  0
 15 16  1  0
 16 17  1  0
 17 18  1  0
 14 19  1  0
 19 20  1  0
 20 21  1  0
 21 22  1  0
 22 23  2  0
 23 24  1  0
 24 25  2  0
 25 26  1  0
 24 27  1  0
 27 28  2  0
  7 29  1  0
 29  3  2  0
 27  8  1  0
 25 10  1  0
 18 11  1  0
 26 21  2  0
 26 14  1  0
  1 30  1  0
  1 31  1  0
  1 32  1  0
  4 33  1  0
  5 34  1  0
  6 35  1  0
  9 36  1  0
  9 37  1  0
 12 38  1  0
 12 39  1  0
 13 40  1  0
 13 41  1  0
 15 42  1  0
 15 43  1  0
 16 44  1  0
 16 45  1  0
 17 46  1  0
 17 47  1  0
 19 48  1  0
 19 49  1  0
 20 50  1  0
 20 51  1  0
 22 52  1  0
 23 53  1  0
 29 54  1  0
M  END
>  <smiles>
COc1cccc(N2CC3=C4CCC5(CCCO4)CCc4ccc(c3c45)C2=O)c1

$$$$
