mol_f3998cd9ea9a
     RDKit          3D

 50 53  0  0  0  0  0  0  0  0999 V2000
   -2.2601   -0.0166   -3.0876 O   0  0  0  0  0  0  0  0  0  0  0  0
   -2.1752   -0.1549   -1.8705 C   0  0  0  0  0  0  0  0  0  0  0  0
   -3.4183   -0.4426   -1.1271 C   0  0  0  0  0  0  0  0  0  0  0  0
   -3.9139   -1.7497   -1.2158 C   0  0  0  0  0  0  0  0  0  0  0  0
   -5.0688   -2.0949   -0.5248 C   0  0  0  0  0  0  0  0  0  0  0  0
   -5.7277   -1.1357    0.2456 C   0  0  0  0  0  0  0  0  0  0  0  0
   -5.2526    0.1855    0.3285 C   0  0  0  0  0  0  0  0  0  0  0  0
   -5.9348    1.1415    1.0991 C   0  0  0  0  0  0  0  0  0  0  0  0
   -5.4797    2.4576    1.1790 C   0  0  0  0  0  0  0  0  0  0  0  0
   -4.3376    2.8385    0.4857 C   0  0  0  0  0  0  0  0  0  0  0  0
   -3.6466    1.9013   -0.2836 C   0  0  0  0  0  0  0  0  0  0  0  0
   -4.0809    0.5578   -0.3736 C   0  0  0  0  0  0  0  0  0  0  0  0
   -0.9855   -0.0784   -1.1602 N   0  0  0  0  0  0  0  0  0  0  0  0
   -0.8276   -0.2871    0.2823 C   0  0  0  0  0  0  0  0  0  0  0  0
    0.3586   -1.2225    0.5884 C   0  0  0  0  0  0  0  0  0  0  0  0
    1.6182   -0.7774   -0.0500 N   0  0  0  0  0  0  0  0  0  0  0  0
    2.7096   -1.7152    0.2769 C   0  0  0  0  0  0  0  0  0  0  0  0
    4.1191   -1.3005   -0.1979 C   0  0  0  0  0  0  0  0  0  0  0  0
    4.6754   -0.0158    0.3359 C   0  0  0  0  0  0  0  0  0  0  0  0
    4.1509    0.8725    1.1979 C   0  0  0  0  0  0  0  0  0  0  0  0
    5.0719    1.9626    1.3916 C   0  0  0  0  0  0  0  0  0  0  0  0
    6.1690    1.7530    0.6505 C   0  0  0  0  0  0  0  0  0  0  0  0
    6.0279    0.4720   -0.1117 C   0  0  0  0  0  0  0  0  0  0  0  0
    7.0351   -0.4319    0.2941 O   0  0  0  0  0  0  0  0  0  0  0  0
    1.4110   -0.6433   -1.5099 C   0  0  0  0  0  0  0  0  0  0  0  0
    0.2433    0.3018   -1.8532 C   0  0  0  0  0  0  0  0  0  0  0  0
   -3.3990   -2.4890   -1.8246 H   0  0  0  0  0  0  0  0  0  0  0  0
   -5.4612   -3.1067   -0.5877 H   0  0  0  0  0  0  0  0  0  0  0  0
   -6.6318   -1.4264    0.7780 H   0  0  0  0  0  0  0  0  0  0  0  0
   -6.8365    0.8675    1.6432 H   0  0  0  0  0  0  0  0  0  0  0  0
   -6.0226    3.1854    1.7765 H   0  0  0  0  0  0  0  0  0  0  0  0
   -3.9848    3.8654    0.5362 H   0  0  0  0  0  0  0  0  0  0  0  0
   -2.7620    2.2329   -0.8251 H   0  0  0  0  0  0  0  0  0  0  0  0
   -0.6569    0.6979    0.7333 H   0  0  0  0  0  0  0  0  0  0  0  0
   -1.7324   -0.7045    0.7299 H   0  0  0  0  0  0  0  0  0  0  0  0
    0.4898   -1.2594    1.6765 H   0  0  0  0  0  0  0  0  0  0  0  0
    0.1052   -2.2368    0.2517 H   0  0  0  0  0  0  0  0  0  0  0  0
    2.7551   -1.8383    1.3674 H   0  0  0  0  0  0  0  0  0  0  0  0
    2.4861   -2.7080   -0.1364 H   0  0  0  0  0  0  0  0  0  0  0  0
    4.8062   -2.1067    0.0910 H   0  0  0  0  0  0  0  0  0  0  0  0
    4.1431   -1.2676   -1.2933 H   0  0  0  0  0  0  0  0  0  0  0  0
    3.1862    0.8122    1.6796 H   0  0  0  0  0  0  0  0  0  0  0  0
    4.8861    2.8074    2.0373 H   0  0  0  0  0  0  0  0  0  0  0  0
    7.0281    2.4028    0.5913 H   0  0  0  0  0  0  0  0  0  0  0  0
    6.0746    0.6337   -1.1927 H   0  0  0  0  0  0  0  0  0  0  0  0
    6.9425   -0.5211    1.2580 H   0  0  0  0  0  0  0  0  0  0  0  0
    1.2158   -1.6283   -1.9539 H   0  0  0  0  0  0  0  0  0  0  0  0
    2.3090   -0.2358   -1.9856 H   0  0  0  0  0  0  0  0  0  0  0  0
    0.0941    0.3210   -2.9375 H   0  0  0  0  0  0  0  0  0  0  0  0
    0.4844    1.3247   -1.5388 H   0  0  0  0  0  0  0  0  0  0  0  0
  1  2  2  0
  2  3  1  0
  3  4  2  0
  4  5  1  0
  5  6  2  0
  6  7  1  0
  7  8  2  0
  8  9  1  0
  9 10  2  0
 10 11  1  0
 11 12  2  0
  2 13  1  0
 13 14  1  0
 14 15  1  0
 15 16  1  0
 16 17  1  0
 17 18  1  0
 18 19  1  0
 19 20  2  0
 20 21  1  0
 21 22  2  0
 22 23  1  0
 23 24  1  0
 16 25  1  0
 25 26  1  0
 12  3  1  0
 26 13  1  0
 12  7  1  0
 23 19  1  0
  4 27  1  0
  5 28  1  0
  6 29  1  0
  8 30  1  0
  9 31  1  0
 10 32  1  0
 11 33  1  0
 14 34  1  0
 14 35  1  0
 15 36  1  0
 15 37  1  0
 17 38  1  0
 17 39  1  0
 18 40  1  0
 18 41  1  0
 20 42  1  0
 21 43  1  0
 22 44  1  0
 23 45  1  0
 24 46  1  0
 25 47  1  0
 25 48  1  0
 26 49  1  0
 26 50  1  0
M  END
>  <smiles>
O=C(c1cccc2ccccc12)N1CCN(CCC2=CC=CC2O)CC1

$$$$
