mol_a685bbe716b9
     RDKit          3D

 50 54  0  0  0  0  0  0  0  0999 V2000
   -3.9122    2.2652    2.0226 C   0  0  0  0  0  0  0  0  0  0  0  0
   -2.5782    2.0981    1.3124 C   0  0  0  0  0  0  0  0  0  0  0  0
   -2.7408    2.4216   -0.1761 C   0  0  0  0  0  0  0  0  0  0  0  0
   -3.1511    3.4763   -0.6377 O   0  0  0  0  0  0  0  0  0  0  0  0
   -2.3421    1.2946   -0.8962 N   0  0  0  0  0  0  0  0  0  0  0  0
   -2.3406    1.2518   -2.3369 C   0  0  0  0  0  0  0  0  0  0  0  0
   -1.9194    0.2932   -0.0578 C   0  0  0  0  0  0  0  0  0  0  0  0
   -2.0564    0.6831    1.2209 C   0  0  0  0  0  0  0  0  0  0  0  0
   -1.6356   -0.1378    2.3993 C   0  0  0  0  0  0  0  0  0  0  0  0
   -2.6878   -0.1382    3.3557 O   0  0  0  0  0  0  0  0  0  0  0  0
   -1.3249   -1.5647    2.0272 C   0  0  0  0  0  0  0  0  0  0  0  0
   -1.1843   -2.6329    2.8312 C   0  0  0  0  0  0  0  0  0  0  0  0
   -0.9541   -3.8671    2.0127 C   0  0  0  0  0  0  0  0  0  0  0  0
   -1.0142   -3.3292    0.6120 C   0  0  0  0  0  0  0  0  0  0  0  0
   -1.2146   -2.0001    0.6414 C   0  0  0  0  0  0  0  0  0  0  0  0
   -1.3577   -1.0315   -0.5047 C   0  0  0  0  0  0  0  0  0  0  0  0
    0.0372   -0.8321   -1.1164 C   0  0  0  0  0  0  0  0  0  0  0  0
    0.9625   -0.1483   -0.5162 N   0  0  0  0  0  0  0  0  0  0  0  0
    2.2115   -0.0163   -1.1438 C   0  0  0  0  0  0  0  0  0  0  0  0
    3.2097    0.7253   -0.5002 C   0  0  0  0  0  0  0  0  0  0  0  0
    4.4691    0.8853   -1.0861 C   0  0  0  0  0  0  0  0  0  0  0  0
    5.5243    1.5798   -0.5666 O   0  0  0  0  0  0  0  0  0  0  0  0
    5.3517    2.2055    0.6944 C   0  0  0  0  0  0  0  0  0  0  0  0
    6.5027    2.8306    1.0272 F   0  0  0  0  0  0  0  0  0  0  0  0
    4.3699    3.1301    0.6479 F   0  0  0  0  0  0  0  0  0  0  0  0
    5.0752    1.2970    1.6536 F   0  0  0  0  0  0  0  0  0  0  0  0
    4.7260    0.2949   -2.3300 C   0  0  0  0  0  0  0  0  0  0  0  0
    3.7420   -0.4470   -2.9836 C   0  0  0  0  0  0  0  0  0  0  0  0
    2.4922   -0.5953   -2.3824 C   0  0  0  0  0  0  0  0  0  0  0  0
    1.4199   -1.3679   -3.0281 C   0  0  0  0  0  0  0  0  0  0  0  0
    1.5667   -1.9165   -4.1130 O   0  0  0  0  0  0  0  0  0  0  0  0
    0.2384   -1.4356   -2.3364 N   0  0  0  0  0  0  0  0  0  0  0  0
   -4.6544    1.5431    1.6635 H   0  0  0  0  0  0  0  0  0  0  0  0
   -4.3221    3.2668    1.8520 H   0  0  0  0  0  0  0  0  0  0  0  0
   -3.8044    2.1363    3.1037 H   0  0  0  0  0  0  0  0  0  0  0  0
   -1.8161    2.7635    1.7320 H   0  0  0  0  0  0  0  0  0  0  0  0
   -1.3070    1.2447   -2.6940 H   0  0  0  0  0  0  0  0  0  0  0  0
   -2.8459    2.1286   -2.7516 H   0  0  0  0  0  0  0  0  0  0  0  0
   -2.8585    0.3509   -2.6776 H   0  0  0  0  0  0  0  0  0  0  0  0
   -0.7558    0.3238    2.8609 H   0  0  0  0  0  0  0  0  0  0  0  0
   -3.3481   -0.7786    3.0411 H   0  0  0  0  0  0  0  0  0  0  0  0
   -1.2414   -2.6158    3.9102 H   0  0  0  0  0  0  0  0  0  0  0  0
    0.0233   -4.3092    2.2262 H   0  0  0  0  0  0  0  0  0  0  0  0
   -1.7417   -4.6065    2.1840 H   0  0  0  0  0  0  0  0  0  0  0  0
   -0.9026   -3.9407   -0.2708 H   0  0  0  0  0  0  0  0  0  0  0  0
   -2.0329   -1.4754   -1.2467 H   0  0  0  0  0  0  0  0  0  0  0  0
    2.9586    1.1629    0.4620 H   0  0  0  0  0  0  0  0  0  0  0  0
    5.7029    0.4135   -2.7955 H   0  0  0  0  0  0  0  0  0  0  0  0
    3.9494   -0.9025   -3.9489 H   0  0  0  0  0  0  0  0  0  0  0  0
   -0.4884   -1.9776   -2.7813 H   0  0  0  0  0  0  0  0  0  0  0  0
  1  2  1  0
  2  3  1  0
  3  4  2  0
  3  5  1  0
  5  6  1  0
  5  7  1  0
  7  8  2  0
  8  9  1  0
  9 10  1  0
  9 11  1  0
 11 12  2  0
 12 13  1  0
 13 14  1  0
 14 15  2  0
 15 16  1  0
 16 17  1  0
 17 18  2  0
 18 19  1  0
 19 20  1  0
 20 21  2  0
 21 22  1  0
 22 23  1  0
 23 24  1  0
 23 25  1  0
 23 26  1  0
 21 27  1  0
 27 28  2  0
 28 29  1  0
 29 30  1  0
 30 31  2  0
 30 32  1  0
  8  2  1  0
 15 11  1  0
 32 17  1  0
 16  7  1  0
 29 19  2  0
  1 33  1  0
  1 34  1  0
  1 35  1  0
  2 36  1  0
  6 37  1  0
  6 38  1  0
  6 39  1  0
  9 40  1  0
 10 41  1  0
 12 42  1  0
 13 43  1  0
 13 44  1  0
 14 45  1  0
 16 46  1  0
 20 47  1  0
 27 48  1  0
 28 49  1  0
 32 50  1  0
M  END
>  <smiles>
CC1C(=O)N(C)C2=C1C(O)C1=CCC=C1C2c1nc2cc(OC(F)(F)F)ccc2c(=O)[nH]1

$$$$
