mol_eaa81d5fb049
     RDKit          3D

 33 35  0  0  0  0  0  0  0  0999 V2000
    4.0180   -2.7637   -0.5550 O   0  0  0  0  0  0  0  0  0  0  0  0
    3.3367   -1.7960   -0.2277 C   0  0  0  0  0  0  0  0  0  0  0  0
    3.9490   -0.5598    0.3946 C   0  0  0  0  0  0  0  0  0  0  0  0
    3.1279    0.7061    0.1494 C   0  0  0  0  0  0  0  0  0  0  0  0
    3.5122    1.2928   -1.2015 C   0  0  0  0  0  0  0  0  0  0  0  0
    2.8613    1.2831   -2.2323 O   0  0  0  0  0  0  0  0  0  0  0  0
    4.7304    1.8734   -1.1776 O   0  0  0  0  0  0  0  0  0  0  0  0
    1.6417    0.4562    0.2098 C   0  0  0  0  0  0  0  0  0  0  0  0
    0.7416    1.5427    0.4996 C   0  0  0  0  0  0  0  0  0  0  0  0
   -0.5818    1.3436    0.5037 C   0  0  0  0  0  0  0  0  0  0  0  0
   -1.1675    0.1035    0.2383 N   0  0  0  0  0  0  0  0  0  0  0  0
   -2.6088   -0.0477    0.2542 C   0  0  0  0  0  0  0  0  0  0  0  0
   -3.4135    0.7836    1.0558 C   0  0  0  0  0  0  0  0  0  0  0  0
   -4.8079    0.6580    1.0702 C   0  0  0  0  0  0  0  0  0  0  0  0
   -5.4302   -0.3007    0.2794 C   0  0  0  0  0  0  0  0  0  0  0  0
   -4.6581   -1.1332   -0.5225 C   0  0  0  0  0  0  0  0  0  0  0  0
   -3.2636   -1.0070   -0.5340 C   0  0  0  0  0  0  0  0  0  0  0  0
   -0.3442   -1.0139   -0.0435 C   0  0  0  0  0  0  0  0  0  0  0  0
   -0.7095   -2.1725   -0.2542 O   0  0  0  0  0  0  0  0  0  0  0  0
    1.1453   -0.7631   -0.0339 C   0  0  0  0  0  0  0  0  0  0  0  0
    1.9744   -1.8197   -0.3105 N   0  0  0  0  0  0  0  0  0  0  0  0
    4.9737   -0.4569    0.0200 H   0  0  0  0  0  0  0  0  0  0  0  0
    4.0100   -0.7516    1.4736 H   0  0  0  0  0  0  0  0  0  0  0  0
    3.3960    1.4490    0.9129 H   0  0  0  0  0  0  0  0  0  0  0  0
    4.8662    2.1857   -2.0984 H   0  0  0  0  0  0  0  0  0  0  0  0
    1.1448    2.5339    0.6862 H   0  0  0  0  0  0  0  0  0  0  0  0
   -1.2400    2.1888    0.6749 H   0  0  0  0  0  0  0  0  0  0  0  0
   -2.9762    1.5185    1.7250 H   0  0  0  0  0  0  0  0  0  0  0  0
   -5.4043    1.3046    1.7089 H   0  0  0  0  0  0  0  0  0  0  0  0
   -6.5121   -0.4020    0.2895 H   0  0  0  0  0  0  0  0  0  0  0  0
   -5.1352   -1.8839   -1.1479 H   0  0  0  0  0  0  0  0  0  0  0  0
   -2.7132   -1.6604   -1.2055 H   0  0  0  0  0  0  0  0  0  0  0  0
    1.5369   -2.6916   -0.6015 H   0  0  0  0  0  0  0  0  0  0  0  0
  1  2  2  0
  2  3  1  0
  3  4  1  0
  4  5  1  0
  5  6  2  0
  5  7  1  0
  4  8  1  0
  8  9  1  0
  9 10  2  0
 10 11  1  0
 11 12  1  0
 12 13  2  0
 13 14  1  0
 14 15  2  0
 15 16  1  0
 16 17  2  0
 11 18  1  0
 18 19  2  0
 18 20  1  0
 20 21  1  0
 21  2  1  0
 20  8  2  0
 17 12  1  0
  3 22  1  0
  3 23  1  0
  4 24  1  0
  7 25  1  0
  9 26  1  0
 10 27  1  0
 13 28  1  0
 14 29  1  0
 15 30  1  0
 16 31  1  0
 17 32  1  0
 21 33  1  0
M  END
>  <smiles>
O=C1CC(C(=O)O)c2ccn(-c3ccccc3)c(=O)c2N1

$$$$
