mol_338928621120
     RDKit          3D

 58 60  0  0  0  0  0  0  0  0999 V2000
   -4.7520   -1.0335    2.0674 C   0  0  0  0  0  0  0  0  0  0  0  0
   -3.3718   -0.4251    1.8615 C   0  0  0  0  0  0  0  0  0  0  0  0
   -3.4274    0.9105    1.1495 C   0  0  0  0  0  0  0  0  0  0  0  0
   -3.8644    2.0326    1.8812 C   0  0  0  0  0  0  0  0  0  0  0  0
   -3.9064    3.3001    1.3025 C   0  0  0  0  0  0  0  0  0  0  0  0
   -3.5101    3.4699   -0.0177 C   0  0  0  0  0  0  0  0  0  0  0  0
   -3.0744    2.3697   -0.7568 C   0  0  0  0  0  0  0  0  0  0  0  0
   -3.0209    1.0765   -0.1950 C   0  0  0  0  0  0  0  0  0  0  0  0
   -2.5916   -0.0423   -1.0612 C   0  0  0  0  0  0  0  0  0  0  0  0
   -3.5939   -0.9073   -1.5493 C   0  0  0  0  0  0  0  0  0  0  0  0
   -3.3208   -1.8880   -2.5054 C   0  0  0  0  0  0  0  0  0  0  0  0
   -2.0382   -2.0092   -3.0360 C   0  0  0  0  0  0  0  0  0  0  0  0
   -1.7293   -3.0643   -4.0556 C   0  0  0  0  0  0  0  0  0  0  0  0
   -1.0281   -1.1657   -2.5583 C   0  0  0  0  0  0  0  0  0  0  0  0
   -1.2799   -0.2081   -1.5584 C   0  0  0  0  0  0  0  0  0  0  0  0
   -0.1640    0.5642   -1.1743 N   0  0  0  0  0  0  0  0  0  0  0  0
    0.1139    1.0504    0.0913 C   0  0  0  0  0  0  0  0  0  0  0  0
   -0.3877    0.6627    1.1431 O   0  0  0  0  0  0  0  0  0  0  0  0
    1.3020    2.0158    0.0896 C   0  0  0  0  0  0  0  0  0  0  0  0
    2.5567    1.2800    0.2571 N   0  0  0  0  0  0  0  0  0  0  0  0
    2.9380    0.9244    1.6180 C   0  0  0  0  0  0  0  0  0  0  0  0
    4.3743    0.4399    1.7406 C   0  0  0  0  0  0  0  0  0  0  0  0
    4.7125   -0.6124    0.6736 C   0  0  0  0  0  0  0  0  0  0  0  0
    3.8731   -1.8913    0.8500 C   0  0  0  0  0  0  0  0  0  0  0  0
    6.1994   -0.9910    0.7941 C   0  0  0  0  0  0  0  0  0  0  0  0
    4.4578    0.0102   -0.7055 C   0  0  0  0  0  0  0  0  0  0  0  0
    3.1056    0.6786   -0.8614 C   0  0  0  0  0  0  0  0  0  0  0  0
    2.5571    0.7370   -1.9652 O   0  0  0  0  0  0  0  0  0  0  0  0
   -5.3862   -0.3890    2.6851 H   0  0  0  0  0  0  0  0  0  0  0  0
   -5.2662   -1.1930    1.1147 H   0  0  0  0  0  0  0  0  0  0  0  0
   -4.6653   -2.0010    2.5721 H   0  0  0  0  0  0  0  0  0  0  0  0
   -2.7364   -1.1375    1.3252 H   0  0  0  0  0  0  0  0  0  0  0  0
   -2.8872   -0.2830    2.8361 H   0  0  0  0  0  0  0  0  0  0  0  0
   -4.1642    1.9181    2.9208 H   0  0  0  0  0  0  0  0  0  0  0  0
   -4.2446    4.1521    1.8855 H   0  0  0  0  0  0  0  0  0  0  0  0
   -3.5428    4.4542   -0.4760 H   0  0  0  0  0  0  0  0  0  0  0  0
   -2.7788    2.5181   -1.7940 H   0  0  0  0  0  0  0  0  0  0  0  0
   -4.6189   -0.7924   -1.2006 H   0  0  0  0  0  0  0  0  0  0  0  0
   -4.1251   -2.5351   -2.8474 H   0  0  0  0  0  0  0  0  0  0  0  0
   -2.6117   -3.2927   -4.6627 H   0  0  0  0  0  0  0  0  0  0  0  0
   -0.9436   -2.7272   -4.7398 H   0  0  0  0  0  0  0  0  0  0  0  0
   -1.3969   -3.9802   -3.5574 H   0  0  0  0  0  0  0  0  0  0  0  0
   -0.0193   -1.2788   -2.9525 H   0  0  0  0  0  0  0  0  0  0  0  0
    0.6307    0.5841   -1.8165 H   0  0  0  0  0  0  0  0  0  0  0  0
    1.3223    2.5727   -0.8544 H   0  0  0  0  0  0  0  0  0  0  0  0
    1.1839    2.7423    0.9001 H   0  0  0  0  0  0  0  0  0  0  0  0
    2.8016    1.8044    2.2568 H   0  0  0  0  0  0  0  0  0  0  0  0
    2.2441    0.1526    1.9686 H   0  0  0  0  0  0  0  0  0  0  0  0
    5.0461    1.3018    1.6284 H   0  0  0  0  0  0  0  0  0  0  0  0
    4.5412    0.0428    2.7492 H   0  0  0  0  0  0  0  0  0  0  0  0
    4.1770   -2.6610    0.1311 H   0  0  0  0  0  0  0  0  0  0  0  0
    4.0006   -2.3080    1.8554 H   0  0  0  0  0  0  0  0  0  0  0  0
    2.8041   -1.7135    0.6960 H   0  0  0  0  0  0  0  0  0  0  0  0
    6.4150   -1.4371    1.7716 H   0  0  0  0  0  0  0  0  0  0  0  0
    6.8452   -0.1130    0.6801 H   0  0  0  0  0  0  0  0  0  0  0  0
    6.4867   -1.7160    0.0242 H   0  0  0  0  0  0  0  0  0  0  0  0
    4.5523   -0.7528   -1.4881 H   0  0  0  0  0  0  0  0  0  0  0  0
    5.2070    0.7842   -0.9178 H   0  0  0  0  0  0  0  0  0  0  0  0
  1  2  1  0
  2  3  1  0
  3  4  2  0
  4  5  1  0
  5  6  2  0
  6  7  1  0
  7  8  2  0
  8  9  1  0
  9 10  1  0
 10 11  2  0
 11 12  1  0
 12 13  1  0
 12 14  2  0
 14 15  1  0
 15 16  1  0
 16 17  1  0
 17 18  2  0
 17 19  1  0
 19 20  1  0
 20 21  1  0
 21 22  1  0
 22 23  1  0
 23 24  1  0
 23 25  1  0
 23 26  1  0
 26 27  1  0
 27 28  2  0
  8  3  1  0
 15  9  2  0
 27 20  1  0
  1 29  1  0
  1 30  1  0
  1 31  1  0
  2 32  1  0
  2 33  1  0
  4 34  1  0
  5 35  1  0
  6 36  1  0
  7 37  1  0
 10 38  1  0
 11 39  1  0
 13 40  1  0
 13 41  1  0
 13 42  1  0
 14 43  1  0
 16 44  1  0
 19 45  1  0
 19 46  1  0
 21 47  1  0
 21 48  1  0
 22 49  1  0
 22 50  1  0
 24 51  1  0
 24 52  1  0
 24 53  1  0
 25 54  1  0
 25 55  1  0
 25 56  1  0
 26 57  1  0
 26 58  1  0
M  END
>  <smiles>
CCc1ccccc1-c1ccc(C)cc1NC(=O)CN1CCC(C)(C)CC1=O

$$$$
