mol_f0e18b68d657
     RDKit          3D

 56 59  0  0  0  0  0  0  0  0999 V2000
    7.4043   -0.6884   -0.6437 C   0  0  0  0  0  0  0  0  0  0  0  0
    6.1030    0.0100   -0.9292 C   0  0  0  0  0  0  0  0  0  0  0  0
    6.0119    0.9292   -1.7347 O   0  0  0  0  0  0  0  0  0  0  0  0
    5.0376   -0.4986   -0.2212 N   0  0  0  0  0  0  0  0  0  0  0  0
    3.6899    0.0413   -0.3664 C   0  0  0  0  0  0  0  0  0  0  0  0
    3.5096    1.2850    0.5037 C   0  0  0  0  0  0  0  0  0  0  0  0
    2.1215    1.8598    0.2676 C   0  0  0  0  0  0  0  0  0  0  0  0
    1.0007    0.8547    0.5822 C   0  0  0  0  0  0  0  0  0  0  0  0
   -0.3426    1.4392    0.0826 C   0  0  0  0  0  0  0  0  0  0  0  0
   -1.4184    0.3810   -0.2807 C   0  0  0  0  0  0  0  0  0  0  0  0
   -1.3433    0.1137   -1.8091 C   0  0  0  0  0  0  0  0  0  0  0  0
   -2.8134    0.9014    0.1384 C   0  0  0  0  0  0  0  0  0  0  0  0
   -3.3882    2.1445   -0.5378 C   0  0  0  0  0  0  0  0  0  0  0  0
   -4.8885    2.0839   -0.2171 C   0  0  0  0  0  0  0  0  0  0  0  0
   -5.1762    0.6538    0.2581 C   0  0  0  0  0  0  0  0  0  0  0  0
   -3.9150   -0.1282   -0.0962 C   0  0  0  0  0  0  0  0  0  0  0  0
   -3.6632   -1.3753    0.7319 C   0  0  0  0  0  0  0  0  0  0  0  0
   -2.2723   -1.9870    0.4425 C   0  0  0  0  0  0  0  0  0  0  0  0
   -2.0623   -3.1408    1.4369 C   0  0  0  0  0  0  0  0  0  0  0  0
   -1.1333   -0.9252    0.5258 C   0  0  0  0  0  0  0  0  0  0  0  0
    0.2397   -1.4581    0.0947 C   0  0  0  0  0  0  0  0  0  0  0  0
    0.4464   -2.6354   -0.1863 O   0  0  0  0  0  0  0  0  0  0  0  0
    1.2551   -0.4957    0.0764 N   0  0  0  0  0  0  0  0  0  0  0  0
    2.6257   -0.9998   -0.0024 C   0  0  0  0  0  0  0  0  0  0  0  0
    8.2376   -0.0455   -0.9403 H   0  0  0  0  0  0  0  0  0  0  0  0
    7.4976   -0.9084    0.4236 H   0  0  0  0  0  0  0  0  0  0  0  0
    7.4456   -1.6216   -1.2118 H   0  0  0  0  0  0  0  0  0  0  0  0
    5.2025   -1.2398    0.4485 H   0  0  0  0  0  0  0  0  0  0  0  0
    3.5552    0.3255   -1.4185 H   0  0  0  0  0  0  0  0  0  0  0  0
    3.6450    1.0385    1.5643 H   0  0  0  0  0  0  0  0  0  0  0  0
    4.2641    2.0410    0.2564 H   0  0  0  0  0  0  0  0  0  0  0  0
    2.0585    2.1739   -0.7828 H   0  0  0  0  0  0  0  0  0  0  0  0
    1.9865    2.7637    0.8738 H   0  0  0  0  0  0  0  0  0  0  0  0
    0.9418    0.7437    1.6739 H   0  0  0  0  0  0  0  0  0  0  0  0
   -0.1817    2.0933   -0.7846 H   0  0  0  0  0  0  0  0  0  0  0  0
   -0.7096    2.1087    0.8725 H   0  0  0  0  0  0  0  0  0  0  0  0
   -2.0270   -0.6771   -2.1291 H   0  0  0  0  0  0  0  0  0  0  0  0
   -1.5803    1.0115   -2.3881 H   0  0  0  0  0  0  0  0  0  0  0  0
   -0.3388   -0.1885   -2.1239 H   0  0  0  0  0  0  0  0  0  0  0  0
   -2.7724    1.1172    1.2190 H   0  0  0  0  0  0  0  0  0  0  0  0
   -3.2581    2.1220   -1.6238 H   0  0  0  0  0  0  0  0  0  0  0  0
   -2.9329    3.0678   -0.1666 H   0  0  0  0  0  0  0  0  0  0  0  0
   -5.1519    2.8031    0.5662 H   0  0  0  0  0  0  0  0  0  0  0  0
   -5.4798    2.3337   -1.1046 H   0  0  0  0  0  0  0  0  0  0  0  0
   -6.0670    0.2360   -0.2215 H   0  0  0  0  0  0  0  0  0  0  0  0
   -5.3516    0.6535    1.3406 H   0  0  0  0  0  0  0  0  0  0  0  0
   -3.9756   -0.4050   -1.1564 H   0  0  0  0  0  0  0  0  0  0  0  0
   -3.7380   -1.1297    1.7998 H   0  0  0  0  0  0  0  0  0  0  0  0
   -4.4461   -2.1160    0.5274 H   0  0  0  0  0  0  0  0  0  0  0  0
   -2.2867   -2.4171   -0.5671 H   0  0  0  0  0  0  0  0  0  0  0  0
   -1.1597   -3.7169    1.2221 H   0  0  0  0  0  0  0  0  0  0  0  0
   -1.9861   -2.7678    2.4641 H   0  0  0  0  0  0  0  0  0  0  0  0
   -2.9037   -3.8417    1.3964 H   0  0  0  0  0  0  0  0  0  0  0  0
   -1.0356   -0.6583    1.5894 H   0  0  0  0  0  0  0  0  0  0  0  0
    2.8499   -1.4338    0.9818 H   0  0  0  0  0  0  0  0  0  0  0  0
    2.6695   -1.8310   -0.7171 H   0  0  0  0  0  0  0  0  0  0  0  0
  1  2  1  0
  2  3  2  0
  2  4  1  0
  4  5  1  0
  5  6  1  0
  6  7  1  0
  7  8  1  0
  8  9  1  0
  9 10  1  0
 10 11  1  0
 10 12  1  0
 12 13  1  0
 13 14  1  0
 14 15  1  0
 15 16  1  0
 16 17  1  0
 17 18  1  0
 18 19  1  0
 18 20  1  0
 20 21  1  0
 21 22  2  0
 21 23  1  0
 23 24  1  0
 24  5  1  0
 23  8  1  0
 20 10  1  0
 16 12  1  0
  1 25  1  0
  1 26  1  0
  1 27  1  0
  4 28  1  0
  5 29  1  0
  6 30  1  0
  6 31  1  0
  7 32  1  0
  7 33  1  0
  8 34  1  0
  9 35  1  0
  9 36  1  0
 11 37  1  0
 11 38  1  0
 11 39  1  0
 12 40  1  0
 13 41  1  0
 13 42  1  0
 14 43  1  0
 14 44  1  0
 15 45  1  0
 15 46  1  0
 16 47  1  0
 17 48  1  0
 17 49  1  0
 18 50  1  0
 19 51  1  0
 19 52  1  0
 19 53  1  0
 20 54  1  0
 24 55  1  0
 24 56  1  0
M  END
>  <smiles>
CC(=O)NC1CCC2CC3(C)C4CCCC4CC(C)C3C(=O)N2C1

$$$$
