mol_056f0273387c
     RDKit          3D

 53 55  0  0  0  0  0  0  0  0999 V2000
    4.5321   -0.7609   -1.3618 C   0  0  0  0  0  0  0  0  0  0  0  0
    4.5042    0.5359   -0.5999 C   0  0  0  0  0  0  0  0  0  0  0  0
    5.3651    1.5728   -0.9963 C   0  0  0  0  0  0  0  0  0  0  0  0
    5.3826    2.7903   -0.3163 C   0  0  0  0  0  0  0  0  0  0  0  0
    4.5414    2.9888    0.7724 C   0  0  0  0  0  0  0  0  0  0  0  0
    3.6857    1.9680    1.1832 C   0  0  0  0  0  0  0  0  0  0  0  0
    3.6600    0.7320    0.5128 C   0  0  0  0  0  0  0  0  0  0  0  0
    2.6972   -0.3296    0.9997 C   0  0  0  0  0  0  0  0  0  0  0  0
    1.3120   -0.1662    0.3569 C   0  0  0  0  0  0  0  0  0  0  0  0
    0.2952   -1.2377    0.8041 C   0  0  0  0  0  0  0  0  0  0  0  0
    0.0208   -1.1802    2.3101 C   0  0  0  0  0  0  0  0  0  0  0  0
   -0.0815   -2.1294    3.0715 O   0  0  0  0  0  0  0  0  0  0  0  0
   -0.1556    0.0717    2.7834 O   0  0  0  0  0  0  0  0  0  0  0  0
    0.7643   -2.6633    0.3880 C   0  0  0  0  0  0  0  0  0  0  0  0
   -0.4977   -3.4581    0.0226 C   0  0  0  0  0  0  0  0  0  0  0  0
   -1.4394   -2.3697   -0.3224 C   0  0  0  0  0  0  0  0  0  0  0  0
   -1.0324   -1.1636    0.0888 C   0  0  0  0  0  0  0  0  0  0  0  0
   -1.8320    0.0102   -0.1514 C   0  0  0  0  0  0  0  0  0  0  0  0
   -3.0055   -0.0923   -0.8103 C   0  0  0  0  0  0  0  0  0  0  0  0
   -3.9503    1.0810   -1.1293 C   0  0  0  0  0  0  0  0  0  0  0  0
   -3.4296    2.4438   -0.6177 C   0  0  0  0  0  0  0  0  0  0  0  0
   -5.3245    0.8384   -0.4709 C   0  0  0  0  0  0  0  0  0  0  0  0
   -4.1325    1.2037   -2.6566 C   0  0  0  0  0  0  0  0  0  0  0  0
   -3.4073   -1.3528   -1.2390 N   0  0  0  0  0  0  0  0  0  0  0  0
   -2.7089   -2.5243   -1.0460 C   0  0  0  0  0  0  0  0  0  0  0  0
   -3.1079   -3.6105   -1.4458 O   0  0  0  0  0  0  0  0  0  0  0  0
    3.5252   -1.0417   -1.6850 H   0  0  0  0  0  0  0  0  0  0  0  0
    5.1489   -0.6835   -2.2637 H   0  0  0  0  0  0  0  0  0  0  0  0
    4.9519   -1.5560   -0.7378 H   0  0  0  0  0  0  0  0  0  0  0  0
    6.0323    1.4379   -1.8452 H   0  0  0  0  0  0  0  0  0  0  0  0
    6.0533    3.5825   -0.6381 H   0  0  0  0  0  0  0  0  0  0  0  0
    4.5512    3.9371    1.3026 H   0  0  0  0  0  0  0  0  0  0  0  0
    3.0322    2.1412    2.0360 H   0  0  0  0  0  0  0  0  0  0  0  0
    2.6210   -0.2610    2.0922 H   0  0  0  0  0  0  0  0  0  0  0  0
    3.1091   -1.3247    0.8027 H   0  0  0  0  0  0  0  0  0  0  0  0
    1.4116   -0.1920   -0.7370 H   0  0  0  0  0  0  0  0  0  0  0  0
    0.9316    0.8372    0.5907 H   0  0  0  0  0  0  0  0  0  0  0  0
   -0.3695   -0.0660    3.7308 H   0  0  0  0  0  0  0  0  0  0  0  0
    1.4101   -2.6120   -0.4999 H   0  0  0  0  0  0  0  0  0  0  0  0
    1.3380   -3.1754    1.1686 H   0  0  0  0  0  0  0  0  0  0  0  0
   -0.8677   -4.0360    0.8757 H   0  0  0  0  0  0  0  0  0  0  0  0
   -0.3057   -4.1353   -0.8147 H   0  0  0  0  0  0  0  0  0  0  0  0
   -1.4560    0.9563    0.2216 H   0  0  0  0  0  0  0  0  0  0  0  0
   -4.1289    3.2514   -0.8653 H   0  0  0  0  0  0  0  0  0  0  0  0
   -2.4655    2.7024   -1.0708 H   0  0  0  0  0  0  0  0  0  0  0  0
   -3.3087    2.4455    0.4718 H   0  0  0  0  0  0  0  0  0  0  0  0
   -6.0042    1.6787   -0.6551 H   0  0  0  0  0  0  0  0  0  0  0  0
   -5.8148   -0.0609   -0.8597 H   0  0  0  0  0  0  0  0  0  0  0  0
   -5.2275    0.7220    0.6150 H   0  0  0  0  0  0  0  0  0  0  0  0
   -4.7744    2.0555   -2.9103 H   0  0  0  0  0  0  0  0  0  0  0  0
   -4.5988    0.3115   -3.0890 H   0  0  0  0  0  0  0  0  0  0  0  0
   -3.1694    1.3529   -3.1588 H   0  0  0  0  0  0  0  0  0  0  0  0
   -4.2811   -1.4657   -1.7366 H   0  0  0  0  0  0  0  0  0  0  0  0
  1  2  1  0
  2  3  2  0
  3  4  1  0
  4  5  2  0
  5  6  1  0
  6  7  2  0
  7  8  1  0
  8  9  1  0
  9 10  1  0
 10 11  1  0
 11 12  2  0
 11 13  1  0
 10 14  1  0
 14 15  1  0
 15 16  1  0
 16 17  2  0
 17 18  1  0
 18 19  2  0
 19 20  1  0
 20 21  1  0
 20 22  1  0
 20 23  1  0
 19 24  1  0
 24 25  1  0
 25 26  2  0
  7  2  1  0
 17 10  1  0
 25 16  1  0
  1 27  1  0
  1 28  1  0
  1 29  1  0
  3 30  1  0
  4 31  1  0
  5 32  1  0
  6 33  1  0
  8 34  1  0
  8 35  1  0
  9 36  1  0
  9 37  1  0
 13 38  1  0
 14 39  1  0
 14 40  1  0
 15 41  1  0
 15 42  1  0
 18 43  1  0
 21 44  1  0
 21 45  1  0
 21 46  1  0
 22 47  1  0
 22 48  1  0
 22 49  1  0
 23 50  1  0
 23 51  1  0
 23 52  1  0
 24 53  1  0
M  END
>  <smiles>
Cc1ccccc1CCC1(C(=O)O)CCc2c1cc(C(C)(C)C)[nH]c2=O

$$$$
