mol_86f012b0adba
     RDKit          3D

 55 59  0  0  0  0  0  0  0  0999 V2000
    8.1133   -0.0022    1.2898 C   0  0  0  0  0  0  0  0  0  0  0  0
    6.7794   -0.4345    1.0574 O   0  0  0  0  0  0  0  0  0  0  0  0
    5.8799    0.5138    0.6511 C   0  0  0  0  0  0  0  0  0  0  0  0
    6.1345    1.8769    0.5269 C   0  0  0  0  0  0  0  0  0  0  0  0
    5.1173    2.7359    0.1156 C   0  0  0  0  0  0  0  0  0  0  0  0
    3.8435    2.2351   -0.1687 C   0  0  0  0  0  0  0  0  0  0  0  0
    3.5573    0.8638   -0.0552 C   0  0  0  0  0  0  0  0  0  0  0  0
    2.2273    0.3601   -0.3326 N   0  0  0  0  0  0  0  0  0  0  0  0
    1.1145    1.1590   -0.1091 C   0  0  0  0  0  0  0  0  0  0  0  0
   -0.1318    0.7515   -0.3708 C   0  0  0  0  0  0  0  0  0  0  0  0
   -0.4002   -0.5849   -0.9106 C   0  0  0  0  0  0  0  0  0  0  0  0
    0.6421   -1.4357   -1.0446 C   0  0  0  0  0  0  0  0  0  0  0  0
    0.5569   -2.9016   -1.3766 C   0  0  0  0  0  0  0  0  0  0  0  0
    2.0590   -0.9472   -0.8353 C   0  0  0  0  0  0  0  0  0  0  0  0
    2.9750   -1.7076   -1.1557 O   0  0  0  0  0  0  0  0  0  0  0  0
   -1.8095   -0.9517   -1.1737 C   0  0  0  0  0  0  0  0  0  0  0  0
   -2.1954   -1.5990   -2.2913 C   0  0  0  0  0  0  0  0  0  0  0  0
   -3.5957   -1.7732   -2.5963 C   0  0  0  0  0  0  0  0  0  0  0  0
   -4.5337   -1.2798   -1.7726 C   0  0  0  0  0  0  0  0  0  0  0  0
   -4.2163   -0.5718   -0.4797 C   0  0  0  0  0  0  0  0  0  0  0  0
   -4.6920   -1.3507    0.6159 O   0  0  0  0  0  0  0  0  0  0  0  0
   -6.0815   -1.3005    0.8824 C   0  0  0  0  0  0  0  0  0  0  0  0
   -4.6572    0.9015   -0.4482 C   0  0  0  0  0  0  0  0  0  0  0  0
   -3.8119    1.4802    0.6886 C   0  0  0  0  0  0  0  0  0  0  0  0
   -2.4716    0.7089    0.6007 C   0  0  0  0  0  0  0  0  0  0  0  0
   -2.0612    0.1919    1.9876 C   0  0  0  0  0  0  0  0  0  0  0  0
   -1.3573    1.5799   -0.0379 C   0  0  0  0  0  0  0  0  0  0  0  0
   -2.7677   -0.4207   -0.3036 N   0  0  0  0  0  0  0  0  0  0  0  0
    4.6001    0.0201    0.3594 C   0  0  0  0  0  0  0  0  0  0  0  0
    8.5549    0.4257    0.3837 H   0  0  0  0  0  0  0  0  0  0  0  0
    8.1579    0.7055    2.1242 H   0  0  0  0  0  0  0  0  0  0  0  0
    8.7059   -0.8796    1.5663 H   0  0  0  0  0  0  0  0  0  0  0  0
    7.1093    2.3009    0.7417 H   0  0  0  0  0  0  0  0  0  0  0  0
    5.3173    3.7990    0.0069 H   0  0  0  0  0  0  0  0  0  0  0  0
    3.0963    2.9381   -0.5257 H   0  0  0  0  0  0  0  0  0  0  0  0
    1.2793    2.1311    0.3425 H   0  0  0  0  0  0  0  0  0  0  0  0
    1.2353   -3.4837   -0.7424 H   0  0  0  0  0  0  0  0  0  0  0  0
   -0.4366   -3.3226   -1.2009 H   0  0  0  0  0  0  0  0  0  0  0  0
    0.8300   -3.0728   -2.4228 H   0  0  0  0  0  0  0  0  0  0  0  0
   -1.4839   -1.9428   -3.0342 H   0  0  0  0  0  0  0  0  0  0  0  0
   -3.8617   -2.2881   -3.5129 H   0  0  0  0  0  0  0  0  0  0  0  0
   -5.5779   -1.4064   -2.0321 H   0  0  0  0  0  0  0  0  0  0  0  0
   -6.6806   -1.4636   -0.0170 H   0  0  0  0  0  0  0  0  0  0  0  0
   -6.3166   -2.0956    1.5959 H   0  0  0  0  0  0  0  0  0  0  0  0
   -6.3505   -0.3498    1.3503 H   0  0  0  0  0  0  0  0  0  0  0  0
   -4.3977    1.4088   -1.3869 H   0  0  0  0  0  0  0  0  0  0  0  0
   -5.7249    1.0541   -0.2713 H   0  0  0  0  0  0  0  0  0  0  0  0
   -4.3151    1.2967    1.6458 H   0  0  0  0  0  0  0  0  0  0  0  0
   -3.6902    2.5638    0.5897 H   0  0  0  0  0  0  0  0  0  0  0  0
   -2.8534   -0.4174    2.4373 H   0  0  0  0  0  0  0  0  0  0  0  0
   -1.1677   -0.4397    1.9477 H   0  0  0  0  0  0  0  0  0  0  0  0
   -1.8549    1.0256    2.6675 H   0  0  0  0  0  0  0  0  0  0  0  0
   -1.7240    2.0338   -0.9692 H   0  0  0  0  0  0  0  0  0  0  0  0
   -1.1015    2.4067    0.6366 H   0  0  0  0  0  0  0  0  0  0  0  0
    4.4337   -1.0452    0.4990 H   0  0  0  0  0  0  0  0  0  0  0  0
  1  2  1  0
  2  3  1  0
  3  4  1  0
  4  5  2  0
  5  6  1  0
  6  7  2  0
  7  8  1  0
  8  9  1  0
  9 10  2  0
 10 11  1  0
 11 12  2  0
 12 13  1  0
 12 14  1  0
 14 15  2  0
 11 16  1  0
 16 17  2  0
 17 18  1  0
 18 19  2  0
 19 20  1  0
 20 21  1  0
 21 22  1  0
 20 23  1  0
 23 24  1  0
 24 25  1  0
 25 26  1  0
 25 27  1  0
 25 28  1  0
  7 29  1  0
 29  3  2  0
 14  8  1  0
 28 16  1  0
 27 10  1  0
 28 20  1  0
  1 30  1  0
  1 31  1  0
  1 32  1  0
  4 33  1  0
  5 34  1  0
  6 35  1  0
  9 36  1  0
 13 37  1  0
 13 38  1  0
 13 39  1  0
 17 40  1  0
 18 41  1  0
 19 42  1  0
 22 43  1  0
 22 44  1  0
 22 45  1  0
 23 46  1  0
 23 47  1  0
 24 48  1  0
 24 49  1  0
 26 50  1  0
 26 51  1  0
 26 52  1  0
 27 53  1  0
 27 54  1  0
 29 55  1  0
M  END
>  <smiles>
COc1cccc(-n2cc3c(c(C)c2=O)C2=CC=CC4(OC)CCC(C)(C3)N24)c1

$$$$
