mol_83de4d96e5c0
     RDKit          3D

 69 73  0  0  0  0  0  0  0  0999 V2000
    0.2850    1.8402    0.9369 C   0  0  0  0  0  0  0  0  0  0  0  0
    0.9211    0.4585    0.9788 C   0  0  0  0  0  0  0  0  0  0  0  0
    0.1567   -0.5918    0.1617 C   0  0  0  0  0  0  0  0  0  0  0  0
    0.9553   -1.8080    0.0300 N   0  0  0  0  0  0  0  0  0  0  0  0
    1.9348   -1.9375   -0.9193 C   0  0  0  0  0  0  0  0  0  0  0  0
    2.1129   -1.0884   -1.7883 O   0  0  0  0  0  0  0  0  0  0  0  0
    2.7302   -3.2410   -0.8599 C   0  0  0  0  0  0  0  0  0  0  0  0
    3.8706   -3.2687   -1.8728 C   0  0  0  0  0  0  0  0  0  0  0  0
    4.9264   -2.2265   -1.5326 C   0  0  0  0  0  0  0  0  0  0  0  0
    5.2724   -2.1530   -0.1160 N   0  0  0  0  0  0  0  0  0  0  0  0
    6.4211   -1.3201    0.2406 C   0  0  0  0  0  0  0  0  0  0  0  0
    6.1253    0.1585    0.1316 C   0  0  0  0  0  0  0  0  0  0  0  0
    5.3428    0.7995    1.1035 C   0  0  0  0  0  0  0  0  0  0  0  0
    5.0522    2.1603    0.9976 C   0  0  0  0  0  0  0  0  0  0  0  0
    5.5399    2.8951   -0.0809 C   0  0  0  0  0  0  0  0  0  0  0  0
    6.3176    2.2702   -1.0541 C   0  0  0  0  0  0  0  0  0  0  0  0
    6.6090    0.9087   -0.9499 C   0  0  0  0  0  0  0  0  0  0  0  0
    4.4666   -2.6321    0.9001 C   0  0  0  0  0  0  0  0  0  0  0  0
    4.6988   -2.4305    2.0933 O   0  0  0  0  0  0  0  0  0  0  0  0
    3.3109   -3.5290    0.5160 C   0  0  0  0  0  0  0  0  0  0  0  0
   -1.1519   -1.0027    0.8602 C   0  0  0  0  0  0  0  0  0  0  0  0
   -1.2082   -1.9523    1.6418 O   0  0  0  0  0  0  0  0  0  0  0  0
   -2.2408   -0.2232    0.5537 N   0  0  0  0  0  0  0  0  0  0  0  0
   -3.5420   -0.4735    1.1437 C   0  0  0  0  0  0  0  0  0  0  0  0
   -4.3027   -1.6054    0.4218 C   0  0  0  0  0  0  0  0  0  0  0  0
   -5.4362   -0.9130   -0.2797 C   0  0  0  0  0  0  0  0  0  0  0  0
   -5.4903    0.3920    0.0152 C   0  0  0  0  0  0  0  0  0  0  0  0
   -4.4004    0.7354    0.9174 C   0  0  0  0  0  0  0  0  0  0  0  0
   -4.2893    1.9814    1.4063 C   0  0  0  0  0  0  0  0  0  0  0  0
   -5.2466    3.0120    1.0257 C   0  0  0  0  0  0  0  0  0  0  0  0
   -6.2686    2.7785    0.1694 C   0  0  0  0  0  0  0  0  0  0  0  0
   -6.4406    1.4226   -0.4082 C   0  0  0  0  0  0  0  0  0  0  0  0
   -7.4391    1.1883   -1.2815 C   0  0  0  0  0  0  0  0  0  0  0  0
   -8.3716    2.2105   -1.6940 C   0  0  0  0  0  0  0  0  0  0  0  0
   -8.2904    3.4544   -1.2044 C   0  0  0  0  0  0  0  0  0  0  0  0
   -7.2425    3.8719   -0.2107 C   0  0  0  0  0  0  0  0  0  0  0  0
    0.9314    2.5649    1.4426 H   0  0  0  0  0  0  0  0  0  0  0  0
   -0.6828    1.8526    1.4456 H   0  0  0  0  0  0  0  0  0  0  0  0
    0.1419    2.1772   -0.0945 H   0  0  0  0  0  0  0  0  0  0  0  0
    1.9453    0.5471    0.5955 H   0  0  0  0  0  0  0  0  0  0  0  0
    1.0090    0.1358    2.0239 H   0  0  0  0  0  0  0  0  0  0  0  0
   -0.0672   -0.2147   -0.8430 H   0  0  0  0  0  0  0  0  0  0  0  0
    0.7407   -2.5567    0.6820 H   0  0  0  0  0  0  0  0  0  0  0  0
    2.0202   -4.0393   -1.1135 H   0  0  0  0  0  0  0  0  0  0  0  0
    4.3324   -4.2646   -1.8653 H   0  0  0  0  0  0  0  0  0  0  0  0
    3.5018   -3.1012   -2.8914 H   0  0  0  0  0  0  0  0  0  0  0  0
    4.5936   -1.2313   -1.8440 H   0  0  0  0  0  0  0  0  0  0  0  0
    5.8405   -2.4492   -2.0955 H   0  0  0  0  0  0  0  0  0  0  0  0
    6.7527   -1.5391    1.2628 H   0  0  0  0  0  0  0  0  0  0  0  0
    7.2573   -1.5977   -0.4127 H   0  0  0  0  0  0  0  0  0  0  0  0
    4.9533    0.2353    1.9494 H   0  0  0  0  0  0  0  0  0  0  0  0
    4.4435    2.6440    1.7566 H   0  0  0  0  0  0  0  0  0  0  0  0
    5.3118    3.9542   -0.1643 H   0  0  0  0  0  0  0  0  0  0  0  0
    6.6945    2.8431   -1.8972 H   0  0  0  0  0  0  0  0  0  0  0  0
    7.2115    0.4362   -1.7219 H   0  0  0  0  0  0  0  0  0  0  0  0
    2.5509   -3.4532    1.3004 H   0  0  0  0  0  0  0  0  0  0  0  0
    3.6910   -4.5584    0.5446 H   0  0  0  0  0  0  0  0  0  0  0  0
   -2.1643    0.5049   -0.1461 H   0  0  0  0  0  0  0  0  0  0  0  0
   -3.4236   -0.7014    2.2091 H   0  0  0  0  0  0  0  0  0  0  0  0
   -4.7060   -2.3230    1.1451 H   0  0  0  0  0  0  0  0  0  0  0  0
   -3.6755   -2.1487   -0.2928 H   0  0  0  0  0  0  0  0  0  0  0  0
   -6.1288   -1.4441   -0.9161 H   0  0  0  0  0  0  0  0  0  0  0  0
   -3.4874    2.2524    2.0853 H   0  0  0  0  0  0  0  0  0  0  0  0
   -5.1028    3.9963    1.4627 H   0  0  0  0  0  0  0  0  0  0  0  0
   -7.5892    0.2080   -1.7224 H   0  0  0  0  0  0  0  0  0  0  0  0
   -9.1413    1.9398   -2.4101 H   0  0  0  0  0  0  0  0  0  0  0  0
   -9.0034    4.2083   -1.5245 H   0  0  0  0  0  0  0  0  0  0  0  0
   -6.6871    4.7171   -0.6359 H   0  0  0  0  0  0  0  0  0  0  0  0
   -7.7521    4.2300    0.6924 H   0  0  0  0  0  0  0  0  0  0  0  0
  1  2  1  0
  2  3  1  0
  3  4  1  0
  4  5  1  0
  5  6  2  0
  5  7  1  0
  7  8  1  0
  8  9  1  0
  9 10  1  0
 10 11  1  0
 11 12  1  0
 12 13  2  0
 13 14  1  0
 14 15  2  0
 15 16  1  0
 16 17  2  0
 10 18  1  0
 18 19  2  0
 18 20  1  0
  3 21  1  0
 21 22  2  0
 21 23  1  0
 23 24  1  0
 24 25  1  0
 25 26  1  0
 26 27  2  0
 27 28  1  0
 28 29  2  0
 29 30  1  0
 30 31  2  0
 31 32  1  0
 32 33  2  0
 33 34  1  0
 34 35  2  0
 35 36  1  0
 20  7  1  0
 28 24  1  0
 36 31  1  0
 17 12  1  0
 32 27  1  0
  1 37  1  0
  1 38  1  0
  1 39  1  0
  2 40  1  0
  2 41  1  0
  3 42  1  0
  4 43  1  0
  7 44  1  0
  8 45  1  0
  8 46  1  0
  9 47  1  0
  9 48  1  0
 11 49  1  0
 11 50  1  0
 13 51  1  0
 14 52  1  0
 15 53  1  0
 16 54  1  0
 17 55  1  0
 20 56  1  0
 20 57  1  0
 23 58  1  0
 24 59  1  0
 25 60  1  0
 25 61  1  0
 26 62  1  0
 29 63  1  0
 30 64  1  0
 33 65  1  0
 34 66  1  0
 35 67  1  0
 36 68  1  0
 36 69  1  0
M  END
>  <smiles>
CCC(NC(=O)C1CCN(Cc2ccccc2)C(=O)C1)C(=O)NC1CC=c2c1ccc1c2=CC=CC1

$$$$
