mol_4665420c1ca8
     RDKit          3D

 51 54  0  0  0  0  0  0  0  0999 V2000
   -0.0956   -2.2147    1.5419 C   0  0  0  0  0  0  0  0  0  0  0  0
   -0.2970   -0.9054    2.2363 C   0  0  0  0  0  0  0  0  0  0  0  0
    0.1720    0.2937    1.8522 C   0  0  0  0  0  0  0  0  0  0  0  0
    0.9882    0.5724    0.6761 C   0  0  0  0  0  0  0  0  0  0  0  0
    2.3276    0.3521    0.6924 C   0  0  0  0  0  0  0  0  0  0  0  0
    3.0647   -0.1961    1.9071 C   0  0  0  0  0  0  0  0  0  0  0  0
    3.7281    0.9042    2.7285 C   0  0  0  0  0  0  0  0  0  0  0  0
    3.1210    0.6615   -0.5270 C   0  0  0  0  0  0  0  0  0  0  0  0
    4.5073    0.4392   -0.6258 C   0  0  0  0  0  0  0  0  0  0  0  0
    5.2195    0.7500   -1.7907 C   0  0  0  0  0  0  0  0  0  0  0  0
    4.5623    1.2923   -2.8872 C   0  0  0  0  0  0  0  0  0  0  0  0
    3.1927    1.5221   -2.8152 C   0  0  0  0  0  0  0  0  0  0  0  0
    2.4805    1.2083   -1.6439 C   0  0  0  0  0  0  0  0  0  0  0  0
    1.0250    1.4621   -1.6085 C   0  0  0  0  0  0  0  0  0  0  0  0
    0.4872    1.9564   -2.5982 O   0  0  0  0  0  0  0  0  0  0  0  0
    0.3386    1.1091   -0.4439 N   0  0  0  0  0  0  0  0  0  0  0  0
   -1.1185    1.3423   -0.4541 C   0  0  0  0  0  0  0  0  0  0  0  0
   -1.9397    0.0737   -0.7163 C   0  0  0  0  0  0  0  0  0  0  0  0
   -1.5005   -0.8495   -1.6037 C   0  0  0  0  0  0  0  0  0  0  0  0
   -2.2575   -2.0498   -1.8661 C   0  0  0  0  0  0  0  0  0  0  0  0
   -3.4236   -2.2600   -1.2407 C   0  0  0  0  0  0  0  0  0  0  0  0
   -3.9499   -1.2857   -0.2919 C   0  0  0  0  0  0  0  0  0  0  0  0
   -5.1369   -1.5205    0.2977 C   0  0  0  0  0  0  0  0  0  0  0  0
   -5.7006   -0.5749    1.2234 C   0  0  0  0  0  0  0  0  0  0  0  0
   -5.0315    0.5475    1.5127 C   0  0  0  0  0  0  0  0  0  0  0  0
   -3.6903    0.8883    0.9232 C   0  0  0  0  0  0  0  0  0  0  0  0
   -3.1851   -0.1200   -0.0376 N   0  0  0  0  0  0  0  0  0  0  0  0
    0.4357   -2.9049    2.2044 H   0  0  0  0  0  0  0  0  0  0  0  0
   -1.0665   -2.6567    1.2985 H   0  0  0  0  0  0  0  0  0  0  0  0
    0.4777   -2.1271    0.6153 H   0  0  0  0  0  0  0  0  0  0  0  0
   -0.9105   -0.9497    3.1338 H   0  0  0  0  0  0  0  0  0  0  0  0
   -0.0838    1.1695    2.4459 H   0  0  0  0  0  0  0  0  0  0  0  0
    3.8029   -0.9490    1.6089 H   0  0  0  0  0  0  0  0  0  0  0  0
    2.3958   -0.7484    2.5741 H   0  0  0  0  0  0  0  0  0  0  0  0
    4.2402    0.4689    3.5929 H   0  0  0  0  0  0  0  0  0  0  0  0
    2.9859    1.6173    3.1027 H   0  0  0  0  0  0  0  0  0  0  0  0
    4.4691    1.4607    2.1469 H   0  0  0  0  0  0  0  0  0  0  0  0
    5.0768    0.0212    0.1991 H   0  0  0  0  0  0  0  0  0  0  0  0
    6.2905    0.5666   -1.8357 H   0  0  0  0  0  0  0  0  0  0  0  0
    5.1106    1.5352   -3.7935 H   0  0  0  0  0  0  0  0  0  0  0  0
    2.6753    1.9461   -3.6738 H   0  0  0  0  0  0  0  0  0  0  0  0
   -1.3749    1.8292    0.4904 H   0  0  0  0  0  0  0  0  0  0  0  0
   -1.3862    2.0735   -1.2269 H   0  0  0  0  0  0  0  0  0  0  0  0
   -0.5762   -0.7260   -2.1564 H   0  0  0  0  0  0  0  0  0  0  0  0
   -1.8610   -2.7649   -2.5775 H   0  0  0  0  0  0  0  0  0  0  0  0
   -3.9926   -3.1609   -1.4425 H   0  0  0  0  0  0  0  0  0  0  0  0
   -5.7127   -2.4163    0.0901 H   0  0  0  0  0  0  0  0  0  0  0  0
   -6.6666   -0.7924    1.6658 H   0  0  0  0  0  0  0  0  0  0  0  0
   -5.4579    1.2629    2.2082 H   0  0  0  0  0  0  0  0  0  0  0  0
   -3.7768    1.8586    0.4197 H   0  0  0  0  0  0  0  0  0  0  0  0
   -2.9826    0.9879    1.7541 H   0  0  0  0  0  0  0  0  0  0  0  0
  1  2  1  0
  2  3  2  3
  3  4  1  0
  4  5  2  0
  5  6  1  0
  6  7  1  0
  5  8  1  0
  8  9  2  0
  9 10  1  0
 10 11  2  0
 11 12  1  0
 12 13  2  0
 13 14  1  0
 14 15  2  0
 14 16  1  0
 16 17  1  0
 17 18  1  0
 18 19  2  0
 19 20  1  0
 20 21  2  0
 21 22  1  0
 22 23  2  0
 23 24  1  0
 24 25  2  0
 25 26  1  0
 26 27  1  0
 16  4  1  0
 27 18  1  0
 13  8  1  0
 27 22  1  0
  1 28  1  0
  1 29  1  0
  1 30  1  0
  2 31  1  0
  3 32  1  0
  6 33  1  0
  6 34  1  0
  7 35  1  0
  7 36  1  0
  7 37  1  0
  9 38  1  0
 10 39  1  0
 11 40  1  0
 12 41  1  0
 17 42  1  0
 17 43  1  0
 19 44  1  0
 20 45  1  0
 21 46  1  0
 23 47  1  0
 24 48  1  0
 25 49  1  0
 26 50  1  0
 26 51  1  0
M  END
>  <smiles>
CC=Cc1c(CC)c2ccccc2c(=O)n1CC1=CC=CC2=CC=CCN21

$$$$
