mol_f7839586170c
     RDKit          3D

 52 54  0  0  0  0  0  0  0  0999 V2000
    7.8554    0.5032    0.7423 O   0  0  0  0  0  0  0  0  0  0  0  0
    7.3038   -0.2075   -0.0802 C   0  0  0  0  0  0  0  0  0  0  0  0
    8.0255   -0.9072   -0.9772 O   0  0  0  0  0  0  0  0  0  0  0  0
    5.8287   -0.3960   -0.2737 C   0  0  0  0  0  0  0  0  0  0  0  0
    5.0594    0.1963    0.9010 C   0  0  0  0  0  0  0  0  0  0  0  0
    3.6119    0.0493    0.7418 N   0  0  0  0  0  0  0  0  0  0  0  0
    2.8954    1.0265   -0.0663 C   0  0  0  0  0  0  0  0  0  0  0  0
    1.4339    1.1527    0.3552 C   0  0  0  0  0  0  0  0  0  0  0  0
    0.7664   -0.1429    0.2766 N   0  0  0  0  0  0  0  0  0  0  0  0
   -0.5255   -0.4009   -0.1839 C   0  0  0  0  0  0  0  0  0  0  0  0
   -0.9771   -1.5461   -0.1031 O   0  0  0  0  0  0  0  0  0  0  0  0
   -1.3498    0.7633   -0.7708 C   0  0  0  0  0  0  0  0  0  0  0  0
   -1.8979    1.7082    0.3232 C   0  0  0  0  0  0  0  0  0  0  0  0
   -2.9287    1.1395    1.2710 C   0  0  0  0  0  0  0  0  0  0  0  0
   -2.5443    0.3434    2.3583 C   0  0  0  0  0  0  0  0  0  0  0  0
   -3.5032   -0.1796    3.2277 C   0  0  0  0  0  0  0  0  0  0  0  0
   -4.8545    0.0903    3.0228 C   0  0  0  0  0  0  0  0  0  0  0  0
   -5.2488    0.8833    1.9477 C   0  0  0  0  0  0  0  0  0  0  0  0
   -4.2916    1.4065    1.0771 C   0  0  0  0  0  0  0  0  0  0  0  0
   -2.4145    0.3673   -1.7965 C   0  0  0  0  0  0  0  0  0  0  0  0
   -2.4761    1.0483   -3.0261 C   0  0  0  0  0  0  0  0  0  0  0  0
   -3.4529    0.7339   -3.9740 C   0  0  0  0  0  0  0  0  0  0  0  0
   -4.3885   -0.2615   -3.7076 C   0  0  0  0  0  0  0  0  0  0  0  0
   -4.3484   -0.9404   -2.4933 C   0  0  0  0  0  0  0  0  0  0  0  0
   -3.3718   -0.6267   -1.5453 C   0  0  0  0  0  0  0  0  0  0  0  0
    1.4819   -1.2627    0.9006 C   0  0  0  0  0  0  0  0  0  0  0  0
    2.9950   -1.1267    1.1535 C   0  0  0  0  0  0  0  0  0  0  0  0
    3.6227   -2.0341    1.7021 O   0  0  0  0  0  0  0  0  0  0  0  0
    8.9584   -0.7111   -0.7481 H   0  0  0  0  0  0  0  0  0  0  0  0
    5.5370    0.0918   -1.2098 H   0  0  0  0  0  0  0  0  0  0  0  0
    5.6170   -1.4677   -0.3569 H   0  0  0  0  0  0  0  0  0  0  0  0
    5.3651   -0.3038    1.8284 H   0  0  0  0  0  0  0  0  0  0  0  0
    5.2859    1.2611    1.0310 H   0  0  0  0  0  0  0  0  0  0  0  0
    2.9678    0.7041   -1.1113 H   0  0  0  0  0  0  0  0  0  0  0  0
    3.3854    2.0008    0.0337 H   0  0  0  0  0  0  0  0  0  0  0  0
    0.9466    1.9071   -0.2621 H   0  0  0  0  0  0  0  0  0  0  0  0
    1.3648    1.4830    1.3986 H   0  0  0  0  0  0  0  0  0  0  0  0
   -0.6284    1.3475   -1.3555 H   0  0  0  0  0  0  0  0  0  0  0  0
   -1.0748    2.0908    0.9389 H   0  0  0  0  0  0  0  0  0  0  0  0
   -2.3216    2.6001   -0.1594 H   0  0  0  0  0  0  0  0  0  0  0  0
   -1.4965    0.1152    2.5370 H   0  0  0  0  0  0  0  0  0  0  0  0
   -3.1948   -0.8034    4.0626 H   0  0  0  0  0  0  0  0  0  0  0  0
   -5.5998   -0.3214    3.6978 H   0  0  0  0  0  0  0  0  0  0  0  0
   -6.3027    1.0899    1.7820 H   0  0  0  0  0  0  0  0  0  0  0  0
   -4.6193    2.0128    0.2351 H   0  0  0  0  0  0  0  0  0  0  0  0
   -1.7624    1.8349   -3.2602 H   0  0  0  0  0  0  0  0  0  0  0  0
   -3.4835    1.2668   -4.9207 H   0  0  0  0  0  0  0  0  0  0  0  0
   -5.1481   -0.5090   -4.4439 H   0  0  0  0  0  0  0  0  0  0  0  0
   -5.0762   -1.7184   -2.2778 H   0  0  0  0  0  0  0  0  0  0  0  0
   -3.3710   -1.1727   -0.6027 H   0  0  0  0  0  0  0  0  0  0  0  0
    1.0063   -1.4383    1.8732 H   0  0  0  0  0  0  0  0  0  0  0  0
    1.3383   -2.1600    0.2872 H   0  0  0  0  0  0  0  0  0  0  0  0
  1  2  2  0
  2  3  1  0
  2  4  1  0
  4  5  1  0
  5  6  1  0
  6  7  1  0
  7  8  1  0
  8  9  1  0
  9 10  1  0
 10 11  2  0
 10 12  1  0
 12 13  1  0
 13 14  1  0
 14 15  2  0
 15 16  1  0
 16 17  2  0
 17 18  1  0
 18 19  2  0
 12 20  1  0
 20 21  2  0
 21 22  1  0
 22 23  2  0
 23 24  1  0
 24 25  2  0
  9 26  1  0
 26 27  1  0
 27 28  2  0
 27  6  1  0
 19 14  1  0
 25 20  1  0
  3 29  1  0
  4 30  1  0
  4 31  1  0
  5 32  1  0
  5 33  1  0
  7 34  1  0
  7 35  1  0
  8 36  1  0
  8 37  1  0
 12 38  1  0
 13 39  1  0
 13 40  1  0
 15 41  1  0
 16 42  1  0
 17 43  1  0
 18 44  1  0
 19 45  1  0
 21 46  1  0
 22 47  1  0
 23 48  1  0
 24 49  1  0
 25 50  1  0
 26 51  1  0
 26 52  1  0
M  END
>  <smiles>
O=C(O)CCN1CCN(C(=O)C(Cc2ccccc2)c2ccccc2)CC1=O

$$$$
