mol_2fb249cdf9ae
     RDKit          3D

 56 58  0  0  0  0  0  0  0  0999 V2000
   -6.2025    1.5458   -0.4912 C   0  0  0  0  0  0  0  0  0  0  0  0
   -5.0961    0.5852   -0.8956 C   0  0  0  0  0  0  0  0  0  0  0  0
   -4.1967    1.1899   -1.9771 C   0  0  0  0  0  0  0  0  0  0  0  0
   -3.1491    0.2501   -2.4051 N   0  0  0  0  0  0  0  0  0  0  0  0
   -3.4282   -0.5256   -3.5350 C   0  0  0  0  0  0  0  0  0  0  0  0
   -2.2881   -1.2543   -4.2101 C   0  0  0  0  0  0  0  0  0  0  0  0
   -4.5549   -0.5837   -4.0366 O   0  0  0  0  0  0  0  0  0  0  0  0
   -2.0147    0.0727   -1.5529 C   0  0  0  0  0  0  0  0  0  0  0  0
   -1.4031    1.1638   -0.9282 C   0  0  0  0  0  0  0  0  0  0  0  0
   -0.3033    0.9945   -0.0710 C   0  0  0  0  0  0  0  0  0  0  0  0
    0.2199   -0.2751    0.2042 C   0  0  0  0  0  0  0  0  0  0  0  0
    1.3892   -0.5009    1.1004 C   0  0  0  0  0  0  0  0  0  0  0  0
    2.1067    0.6547    1.7673 C   0  0  0  0  0  0  0  0  0  0  0  0
    3.3862    1.1030    1.0417 C   0  0  0  0  0  0  0  0  0  0  0  0
    3.1541    1.6879   -0.3494 C   0  0  0  0  0  0  0  0  0  0  0  0
    4.1219    2.0886    1.9275 C   0  0  0  0  0  0  0  0  0  0  0  0
    5.1147    1.7981    2.5822 O   0  0  0  0  0  0  0  0  0  0  0  0
    3.5109    3.3050    1.9341 O   0  0  0  0  0  0  0  0  0  0  0  0
    4.1504    4.2730    2.7678 C   0  0  0  0  0  0  0  0  0  0  0  0
    1.7707   -1.7757    1.3071 C   0  0  0  0  0  0  0  0  0  0  0  0
    1.1313   -2.8434    0.7196 N   0  0  0  0  0  0  0  0  0  0  0  0
    0.0683   -2.7512   -0.1487 C   0  0  0  0  0  0  0  0  0  0  0  0
   -0.4644   -3.7178   -0.6844 O   0  0  0  0  0  0  0  0  0  0  0  0
   -0.4147   -1.3702   -0.4113 C   0  0  0  0  0  0  0  0  0  0  0  0
   -1.5162   -1.1999   -1.2694 C   0  0  0  0  0  0  0  0  0  0  0  0
    1.7299   -4.1107    1.1071 C   0  0  0  0  0  0  0  0  0  0  0  0
    2.5104   -3.7634    2.3635 C   0  0  0  0  0  0  0  0  0  0  0  0
    2.8974   -2.2982    2.1637 C   0  0  0  0  0  0  0  0  0  0  0  0
   -6.8398    1.7926   -1.3463 H   0  0  0  0  0  0  0  0  0  0  0  0
   -5.7870    2.4763   -0.0916 H   0  0  0  0  0  0  0  0  0  0  0  0
   -6.8320    1.0949    0.2824 H   0  0  0  0  0  0  0  0  0  0  0  0
   -5.5420   -0.3485   -1.2582 H   0  0  0  0  0  0  0  0  0  0  0  0
   -4.5025    0.3288   -0.0104 H   0  0  0  0  0  0  0  0  0  0  0  0
   -4.8114    1.4597   -2.8450 H   0  0  0  0  0  0  0  0  0  0  0  0
   -3.7563    2.1297   -1.6324 H   0  0  0  0  0  0  0  0  0  0  0  0
   -1.3235   -0.7778   -4.0224 H   0  0  0  0  0  0  0  0  0  0  0  0
   -2.2712   -2.2988   -3.8913 H   0  0  0  0  0  0  0  0  0  0  0  0
   -2.4533   -1.2289   -5.2924 H   0  0  0  0  0  0  0  0  0  0  0  0
   -1.7343    2.1804   -1.1226 H   0  0  0  0  0  0  0  0  0  0  0  0
    0.1252    1.8945    0.3594 H   0  0  0  0  0  0  0  0  0  0  0  0
    2.3732    0.3589    2.7918 H   0  0  0  0  0  0  0  0  0  0  0  0
    1.4374    1.5061    1.9310 H   0  0  0  0  0  0  0  0  0  0  0  0
    4.0584    0.2429    0.9222 H   0  0  0  0  0  0  0  0  0  0  0  0
    2.4360    2.5142   -0.3281 H   0  0  0  0  0  0  0  0  0  0  0  0
    4.0895    2.0807   -0.7634 H   0  0  0  0  0  0  0  0  0  0  0  0
    2.7804    0.9271   -1.0416 H   0  0  0  0  0  0  0  0  0  0  0  0
    3.5921    5.2098    2.6881 H   0  0  0  0  0  0  0  0  0  0  0  0
    5.1765    4.4515    2.4313 H   0  0  0  0  0  0  0  0  0  0  0  0
    4.1346    3.9478    3.8127 H   0  0  0  0  0  0  0  0  0  0  0  0
   -2.0030   -2.0879   -1.6651 H   0  0  0  0  0  0  0  0  0  0  0  0
    0.9640   -4.8738    1.2756 H   0  0  0  0  0  0  0  0  0  0  0  0
    2.3868   -4.4382    0.2934 H   0  0  0  0  0  0  0  0  0  0  0  0
    1.8593   -3.8542    3.2424 H   0  0  0  0  0  0  0  0  0  0  0  0
    3.3750   -4.4153    2.5178 H   0  0  0  0  0  0  0  0  0  0  0  0
    3.8447   -2.2277    1.6179 H   0  0  0  0  0  0  0  0  0  0  0  0
    2.9932   -1.7871    3.1249 H   0  0  0  0  0  0  0  0  0  0  0  0
  1  2  1  0
  2  3  1  0
  3  4  1  0
  4  5  1  0
  5  6  1  0
  5  7  2  0
  4  8  1  0
  8  9  1  0
  9 10  2  0
 10 11  1  0
 11 12  1  0
 12 13  1  0
 13 14  1  0
 14 15  1  0
 14 16  1  0
 16 17  2  0
 16 18  1  0
 18 19  1  0
 12 20  2  0
 20 21  1  0
 21 22  1  0
 22 23  2  0
 22 24  1  0
 24 25  1  0
 21 26  1  0
 26 27  1  0
 27 28  1  0
 25  8  2  0
 24 11  2  0
 28 20  1  0
  1 29  1  0
  1 30  1  0
  1 31  1  0
  2 32  1  0
  2 33  1  0
  3 34  1  0
  3 35  1  0
  6 36  1  0
  6 37  1  0
  6 38  1  0
  9 39  1  0
 10 40  1  0
 13 41  1  0
 13 42  1  0
 14 43  1  0
 15 44  1  0
 15 45  1  0
 15 46  1  0
 19 47  1  0
 19 48  1  0
 19 49  1  0
 25 50  1  0
 26 51  1  0
 26 52  1  0
 27 53  1  0
 27 54  1  0
 28 55  1  0
 28 56  1  0
M  END
>  <smiles>
CCCN(C(C)=O)c1ccc2c(CC(C)C(=O)OC)c3n(c(=O)c2c1)CCC3

$$$$
