mol_7f9b73b1adbc
     RDKit          3D

 59 64  0  0  0  0  0  0  0  0999 V2000
   -1.1766    0.7405   -1.7801 O   0  0  0  0  0  0  0  0  0  0  0  0
   -1.3751    0.7682   -0.5608 C   0  0  0  0  0  0  0  0  0  0  0  0
   -2.4744   -0.1065    0.0762 C   0  0  0  0  0  0  0  0  0  0  0  0
   -3.5515   -0.5176   -0.9516 C   0  0  0  0  0  0  0  0  0  0  0  0
   -4.5324    0.6000   -1.2352 C   0  0  0  0  0  0  0  0  0  0  0  0
   -5.6377    0.8015   -0.3963 C   0  0  0  0  0  0  0  0  0  0  0  0
   -6.5324    1.8439   -0.6431 C   0  0  0  0  0  0  0  0  0  0  0  0
   -6.3299    2.6953   -1.7275 C   0  0  0  0  0  0  0  0  0  0  0  0
   -5.2334    2.5048   -2.5661 C   0  0  0  0  0  0  0  0  0  0  0  0
   -4.3382    1.4624   -2.3214 C   0  0  0  0  0  0  0  0  0  0  0  0
   -1.8633   -1.3574    0.7033 C   0  0  0  0  0  0  0  0  0  0  0  0
   -2.2110   -1.7287    2.0110 C   0  0  0  0  0  0  0  0  0  0  0  0
   -1.6451   -2.8597    2.6012 C   0  0  0  0  0  0  0  0  0  0  0  0
   -0.7352   -3.6385    1.8900 C   0  0  0  0  0  0  0  0  0  0  0  0
   -0.3936   -3.2913    0.5854 C   0  0  0  0  0  0  0  0  0  0  0  0
   -0.9570   -2.1609   -0.0076 C   0  0  0  0  0  0  0  0  0  0  0  0
   -0.5786    1.5475    0.2690 N   0  0  0  0  0  0  0  0  0  0  0  0
   -0.6454    1.6087    1.7360 C   0  0  0  0  0  0  0  0  0  0  0  0
    0.5652    0.9093    2.3677 C   0  0  0  0  0  0  0  0  0  0  0  0
    0.5420    0.4860    3.5225 O   0  0  0  0  0  0  0  0  0  0  0  0
    1.7075    0.9259    1.5895 N   0  0  0  0  0  0  0  0  0  0  0  0
    2.9234    0.1725    1.9227 C   0  0  0  0  0  0  0  0  0  0  0  0
    3.9255    0.5831    0.8431 C   0  0  0  0  0  0  0  0  0  0  0  0
    3.0211    1.2389   -0.1843 C   0  0  0  0  0  0  0  0  0  0  0  0
    1.8091    1.4912    0.3284 C   0  0  0  0  0  0  0  0  0  0  0  0
    0.6172    2.1619   -0.2947 C   0  0  0  0  0  0  0  0  0  0  0  0
    3.5358    1.4434   -1.5116 C   0  0  0  0  0  0  0  0  0  0  0  0
    4.5550    0.6873   -1.9560 C   0  0  0  0  0  0  0  0  0  0  0  0
    5.1290   -0.3840   -1.1191 C   0  0  0  0  0  0  0  0  0  0  0  0
    6.0123   -1.3236   -1.6476 C   0  0  0  0  0  0  0  0  0  0  0  0
    6.5199   -2.3257   -0.8237 C   0  0  0  0  0  0  0  0  0  0  0  0
    6.1313   -2.3504    0.5068 C   0  0  0  0  0  0  0  0  0  0  0  0
    5.2871   -1.4545    1.0626 N   0  0  0  0  0  0  0  0  0  0  0  0
    4.7877   -0.4958    0.2415 C   0  0  0  0  0  0  0  0  0  0  0  0
   -2.9689    0.4851    0.8547 H   0  0  0  0  0  0  0  0  0  0  0  0
   -3.1047   -0.8648   -1.8925 H   0  0  0  0  0  0  0  0  0  0  0  0
   -4.1278   -1.3752   -0.5765 H   0  0  0  0  0  0  0  0  0  0  0  0
   -5.8105    0.1439    0.4527 H   0  0  0  0  0  0  0  0  0  0  0  0
   -7.3889    1.9903    0.0095 H   0  0  0  0  0  0  0  0  0  0  0  0
   -7.0272    3.5060   -1.9207 H   0  0  0  0  0  0  0  0  0  0  0  0
   -5.0733    3.1672   -3.4126 H   0  0  0  0  0  0  0  0  0  0  0  0
   -3.4846    1.3282   -2.9839 H   0  0  0  0  0  0  0  0  0  0  0  0
   -2.9163   -1.1349    2.5880 H   0  0  0  0  0  0  0  0  0  0  0  0
   -1.9087   -3.1293    3.6207 H   0  0  0  0  0  0  0  0  0  0  0  0
   -0.2906   -4.5150    2.3539 H   0  0  0  0  0  0  0  0  0  0  0  0
    0.3160   -3.8985    0.0294 H   0  0  0  0  0  0  0  0  0  0  0  0
   -0.6738   -1.9093   -1.0287 H   0  0  0  0  0  0  0  0  0  0  0  0
   -1.5545    1.1615    2.1332 H   0  0  0  0  0  0  0  0  0  0  0  0
   -0.6256    2.6637    2.0313 H   0  0  0  0  0  0  0  0  0  0  0  0
    3.2557    0.4372    2.9323 H   0  0  0  0  0  0  0  0  0  0  0  0
    2.6736   -0.8952    1.9086 H   0  0  0  0  0  0  0  0  0  0  0  0
    4.5985    1.3525    1.2482 H   0  0  0  0  0  0  0  0  0  0  0  0
    0.6042    3.2240   -0.0247 H   0  0  0  0  0  0  0  0  0  0  0  0
    0.6438    2.0905   -1.3854 H   0  0  0  0  0  0  0  0  0  0  0  0
    3.0571    2.1634   -2.1680 H   0  0  0  0  0  0  0  0  0  0  0  0
    4.9329    0.8062   -2.9664 H   0  0  0  0  0  0  0  0  0  0  0  0
    6.3047   -1.2892   -2.6933 H   0  0  0  0  0  0  0  0  0  0  0  0
    7.2045   -3.0721   -1.2113 H   0  0  0  0  0  0  0  0  0  0  0  0
    6.5057   -3.1139    1.1832 H   0  0  0  0  0  0  0  0  0  0  0  0
  1  2  2  0
  2  3  1  0
  3  4  1  0
  4  5  1  0
  5  6  2  0
  6  7  1  0
  7  8  2  0
  8  9  1  0
  9 10  2  0
  3 11  1  0
 11 12  2  0
 12 13  1  0
 13 14  2  0
 14 15  1  0
 15 16  2  0
  2 17  1  0
 17 18  1  0
 18 19  1  0
 19 20  2  0
 19 21  1  0
 21 22  1  0
 22 23  1  0
 23 24  1  0
 24 25  2  0
 25 26  1  0
 24 27  1  0
 27 28  2  0
 28 29  1  0
 29 30  1  0
 30 31  2  0
 31 32  1  0
 32 33  2  0
 33 34  1  0
 10  5  1  0
 16 11  1  0
 26 17  1  0
 34 29  2  0
 25 21  1  0
 34 23  1  0
  3 35  1  0
  4 36  1  0
  4 37  1  0
  6 38  1  0
  7 39  1  0
  8 40  1  0
  9 41  1  0
 10 42  1  0
 12 43  1  0
 13 44  1  0
 14 45  1  0
 15 46  1  0
 16 47  1  0
 18 48  1  0
 18 49  1  0
 22 50  1  0
 22 51  1  0
 23 52  1  0
 26 53  1  0
 26 54  1  0
 27 55  1  0
 28 56  1  0
 30 57  1  0
 31 58  1  0
 32 59  1  0
M  END
>  <smiles>
O=C(C(Cc1ccccc1)c1ccccc1)N1CC(=O)N2CC3C(=C2C1)C=Cc1cccnc13

$$$$
