mol_81464f96b86a
     RDKit          3D

 39 40  0  0  0  0  0  0  0  0999 V2000
   -3.3958    3.3383    0.4365 C   0  0  0  0  0  0  0  0  0  0  0  0
   -2.1755    2.4843    0.2408 C   0  0  0  0  0  0  0  0  0  0  0  0
   -1.0271    2.8873    0.6878 N   0  0  0  0  0  0  0  0  0  0  0  0
    0.0876    2.0608    0.4870 C   0  0  0  0  0  0  0  0  0  0  0  0
    1.3109    2.5202    0.9851 C   0  0  0  0  0  0  0  0  0  0  0  0
    2.4734    1.7673    0.8360 C   0  0  0  0  0  0  0  0  0  0  0  0
    2.4331    0.5336    0.1789 C   0  0  0  0  0  0  0  0  0  0  0  0
    3.6858   -0.3017    0.0164 C   0  0  0  0  0  0  0  0  0  0  0  0
    4.1653   -0.8928    1.3351 C   0  0  0  0  0  0  0  0  0  0  0  0
    4.7342    0.4863   -0.5429 O   0  0  0  0  0  0  0  0  0  0  0  0
    1.2022    0.0710   -0.3209 C   0  0  0  0  0  0  0  0  0  0  0  0
    0.0220    0.8202   -0.1764 C   0  0  0  0  0  0  0  0  0  0  0  0
   -1.2421    0.3765   -0.6705 N   0  0  0  0  0  0  0  0  0  0  0  0
   -1.4189   -0.8901   -1.3752 C   0  0  0  0  0  0  0  0  0  0  0  0
   -1.9856   -2.0185   -0.4879 C   0  0  0  0  0  0  0  0  0  0  0  0
   -1.0176   -2.4518    0.6129 C   0  0  0  0  0  0  0  0  0  0  0  0
   -2.3508   -3.2251   -1.3563 C   0  0  0  0  0  0  0  0  0  0  0  0
   -2.3760    1.1688   -0.4893 C   0  0  0  0  0  0  0  0  0  0  0  0
   -3.5053    0.8828   -0.8717 O   0  0  0  0  0  0  0  0  0  0  0  0
   -3.1375    4.2568    0.9712 H   0  0  0  0  0  0  0  0  0  0  0  0
   -4.1391    2.7878    1.0194 H   0  0  0  0  0  0  0  0  0  0  0  0
   -3.8180    3.6033   -0.5366 H   0  0  0  0  0  0  0  0  0  0  0  0
    1.3505    3.4784    1.4981 H   0  0  0  0  0  0  0  0  0  0  0  0
    3.4110    2.1484    1.2375 H   0  0  0  0  0  0  0  0  0  0  0  0
    3.4992   -1.1176   -0.6912 H   0  0  0  0  0  0  0  0  0  0  0  0
    3.3931   -1.5146    1.7997 H   0  0  0  0  0  0  0  0  0  0  0  0
    4.4519   -0.1095    2.0460 H   0  0  0  0  0  0  0  0  0  0  0  0
    5.0580   -1.5069    1.1735 H   0  0  0  0  0  0  0  0  0  0  0  0
    4.3246    1.1283   -1.1482 H   0  0  0  0  0  0  0  0  0  0  0  0
    1.1955   -0.8949   -0.8144 H   0  0  0  0  0  0  0  0  0  0  0  0
   -0.5019   -1.1999   -1.8840 H   0  0  0  0  0  0  0  0  0  0  0  0
   -2.1358   -0.7055   -2.1873 H   0  0  0  0  0  0  0  0  0  0  0  0
   -2.9048   -1.6660   -0.0034 H   0  0  0  0  0  0  0  0  0  0  0  0
   -0.8102   -1.6308    1.3056 H   0  0  0  0  0  0  0  0  0  0  0  0
   -1.4447   -3.2711    1.2017 H   0  0  0  0  0  0  0  0  0  0  0  0
   -0.0682   -2.8017    0.1947 H   0  0  0  0  0  0  0  0  0  0  0  0
   -2.7878   -4.0247   -0.7488 H   0  0  0  0  0  0  0  0  0  0  0  0
   -3.0863   -2.9478   -2.1189 H   0  0  0  0  0  0  0  0  0  0  0  0
   -1.4692   -3.6293   -1.8656 H   0  0  0  0  0  0  0  0  0  0  0  0
  1  2  1  0
  2  3  2  0
  3  4  1  0
  4  5  1  0
  5  6  2  0
  6  7  1  0
  7  8  1  0
  8  9  1  0
  8 10  1  0
  7 11  2  0
 11 12  1  0
 12 13  1  0
 13 14  1  0
 14 15  1  0
 15 16  1  0
 15 17  1  0
 13 18  1  0
 18 19  2  0
 18  2  1  0
 12  4  2  0
  1 20  1  0
  1 21  1  0
  1 22  1  0
  5 23  1  0
  6 24  1  0
  8 25  1  0
  9 26  1  0
  9 27  1  0
  9 28  1  0
 10 29  1  0
 11 30  1  0
 14 31  1  0
 14 32  1  0
 15 33  1  0
 16 34  1  0
 16 35  1  0
 16 36  1  0
 17 37  1  0
 17 38  1  0
 17 39  1  0
M  END
>  <smiles>
Cc1nc2ccc(C(C)O)cc2n(CC(C)C)c1=O

$$$$
