mol_a148d1369945
     RDKit          3D

 49 53  0  0  0  0  0  0  0  0999 V2000
   -3.4639   -2.8690   -1.5312 C   0  0  0  0  0  0  0  0  0  0  0  0
   -2.8579   -1.6025   -2.1425 C   0  0  0  0  0  0  0  0  0  0  0  0
   -3.5633   -0.3550   -1.5921 C   0  0  0  0  0  0  0  0  0  0  0  0
   -2.5930    0.1942   -0.5797 C   0  0  0  0  0  0  0  0  0  0  0  0
   -3.1139    1.1680    0.4356 C   0  0  0  0  0  0  0  0  0  0  0  0
   -3.2744    2.5676   -0.1241 C   0  0  0  0  0  0  0  0  0  0  0  0
   -3.1462    2.9397   -1.2780 O   0  0  0  0  0  0  0  0  0  0  0  0
   -3.6157    3.4532    0.8366 O   0  0  0  0  0  0  0  0  0  0  0  0
   -1.3615   -0.3175   -0.7643 C   0  0  0  0  0  0  0  0  0  0  0  0
   -0.0560   -0.0628   -0.1266 C   0  0  0  0  0  0  0  0  0  0  0  0
    0.2158    1.1632    0.4893 C   0  0  0  0  0  0  0  0  0  0  0  0
    1.4647    1.4497    1.0616 C   0  0  0  0  0  0  0  0  0  0  0  0
    2.4899    0.4862    1.0244 C   0  0  0  0  0  0  0  0  0  0  0  0
    2.2545   -0.7272    0.3273 C   0  0  0  0  0  0  0  0  0  0  0  0
    3.3278   -1.7405    0.1288 C   0  0  0  0  0  0  0  0  0  0  0  0
    4.4871   -1.5882    0.4958 O   0  0  0  0  0  0  0  0  0  0  0  0
    2.9764   -2.8920   -0.5190 N   0  0  0  0  0  0  0  0  0  0  0  0
    1.7585   -3.2055   -1.0353 C   0  0  0  0  0  0  0  0  0  0  0  0
    1.5898   -4.3014   -1.5674 O   0  0  0  0  0  0  0  0  0  0  0  0
    0.7759   -2.2470   -0.9155 N   0  0  0  0  0  0  0  0  0  0  0  0
    0.9897   -1.0098   -0.2330 C   0  0  0  0  0  0  0  0  0  0  0  0
   -0.5642   -2.5778   -1.3915 C   0  0  0  0  0  0  0  0  0  0  0  0
   -1.3596   -1.3612   -1.8496 C   0  0  0  0  0  0  0  0  0  0  0  0
    3.8266    0.7910    1.6736 C   0  0  0  0  0  0  0  0  0  0  0  0
    3.8273    2.0051    2.6027 C   0  0  0  0  0  0  0  0  0  0  0  0
    3.0978    3.1694    1.9576 C   0  0  0  0  0  0  0  0  0  0  0  0
    1.6392    2.7939    1.7317 C   0  0  0  0  0  0  0  0  0  0  0  0
   -3.3731   -2.8786   -0.4399 H   0  0  0  0  0  0  0  0  0  0  0  0
   -2.9839   -3.7681   -1.9303 H   0  0  0  0  0  0  0  0  0  0  0  0
   -4.5300   -2.9370   -1.7748 H   0  0  0  0  0  0  0  0  0  0  0  0
   -3.0121   -1.6633   -3.2274 H   0  0  0  0  0  0  0  0  0  0  0  0
   -4.5320   -0.5957   -1.1418 H   0  0  0  0  0  0  0  0  0  0  0  0
   -3.7269    0.3823   -2.3864 H   0  0  0  0  0  0  0  0  0  0  0  0
   -4.0942    0.8306    0.7919 H   0  0  0  0  0  0  0  0  0  0  0  0
   -2.4575    1.2094    1.3097 H   0  0  0  0  0  0  0  0  0  0  0  0
   -3.7035    4.3017    0.3526 H   0  0  0  0  0  0  0  0  0  0  0  0
   -0.5360    1.9464    0.5052 H   0  0  0  0  0  0  0  0  0  0  0  0
    3.6998   -3.5849   -0.6329 H   0  0  0  0  0  0  0  0  0  0  0  0
   -0.4996   -3.2983   -2.2155 H   0  0  0  0  0  0  0  0  0  0  0  0
   -1.0482   -3.0951   -0.5538 H   0  0  0  0  0  0  0  0  0  0  0  0
   -0.8837   -0.9261   -2.7402 H   0  0  0  0  0  0  0  0  0  0  0  0
    4.1504   -0.0637    2.2777 H   0  0  0  0  0  0  0  0  0  0  0  0
    4.5623    0.9608    0.8777 H   0  0  0  0  0  0  0  0  0  0  0  0
    4.8596    2.2862    2.8394 H   0  0  0  0  0  0  0  0  0  0  0  0
    3.3410    1.7470    3.5522 H   0  0  0  0  0  0  0  0  0  0  0  0
    3.5754    3.4252    1.0034 H   0  0  0  0  0  0  0  0  0  0  0  0
    3.1567    4.0570    2.5972 H   0  0  0  0  0  0  0  0  0  0  0  0
    1.1158    2.7631    2.6957 H   0  0  0  0  0  0  0  0  0  0  0  0
    1.1683    3.5769    1.1250 H   0  0  0  0  0  0  0  0  0  0  0  0
  1  2  1  0
  2  3  1  0
  3  4  1  0
  4  5  1  0
  5  6  1  0
  6  7  2  0
  6  8  1  0
  4  9  2  0
  9 10  1  0
 10 11  2  0
 11 12  1  0
 12 13  2  0
 13 14  1  0
 14 15  1  0
 15 16  2  0
 15 17  1  0
 17 18  1  0
 18 19  2  0
 18 20  1  0
 20 21  1  0
 20 22  1  0
 22 23  1  0
 13 24  1  0
 24 25  1  0
 25 26  1  0
 26 27  1  0
 23  2  1  0
 23  9  1  0
 21 10  1  0
 27 12  1  0
 21 14  2  0
  1 28  1  0
  1 29  1  0
  1 30  1  0
  2 31  1  0
  3 32  1  0
  3 33  1  0
  5 34  1  0
  5 35  1  0
  8 36  1  0
 11 37  1  0
 17 38  1  0
 22 39  1  0
 22 40  1  0
 23 41  1  0
 24 42  1  0
 24 43  1  0
 25 44  1  0
 25 45  1  0
 26 46  1  0
 26 47  1  0
 27 48  1  0
 27 49  1  0
M  END
>  <smiles>
CC1CC(CC(=O)O)=C2c3cc4c(c5c(=O)[nH]c(=O)n(c35)CC21)CCCC4

$$$$
