mol_1ab4372805de
     RDKit          3D

 65 69  0  0  0  0  0  0  0  0999 V2000
    5.6105   -3.0148    2.7417 O   0  0  0  0  0  0  0  0  0  0  0  0
    4.8911   -2.5822    1.8404 C   0  0  0  0  0  0  0  0  0  0  0  0
    4.8672   -1.1047    1.5112 C   0  0  0  0  0  0  0  0  0  0  0  0
    4.7689   -0.7851    0.0270 C   0  0  0  0  0  0  0  0  0  0  0  0
    3.3263   -0.7784   -0.4968 C   0  0  0  0  0  0  0  0  0  0  0  0
    2.6828    0.5027   -0.2154 N   0  0  0  0  0  0  0  0  0  0  0  0
    1.6337    0.9792   -0.9761 C   0  0  0  0  0  0  0  0  0  0  0  0
    1.1562    0.3592   -1.9195 O   0  0  0  0  0  0  0  0  0  0  0  0
    1.1401    2.3337   -0.5144 C   0  0  0  0  0  0  0  0  0  0  0  0
    0.0180    2.8589   -1.4126 C   0  0  0  0  0  0  0  0  0  0  0  0
   -1.2223    2.2582   -1.0444 O   0  0  0  0  0  0  0  0  0  0  0  0
   -1.9113    2.8712   -0.0296 C   0  0  0  0  0  0  0  0  0  0  0  0
   -1.9163    4.2751    0.0437 C   0  0  0  0  0  0  0  0  0  0  0  0
   -2.6172    4.9127    1.0697 C   0  0  0  0  0  0  0  0  0  0  0  0
   -3.2879    4.1560    2.0224 C   0  0  0  0  0  0  0  0  0  0  0  0
   -3.2768    2.7602    1.9469 C   0  0  0  0  0  0  0  0  0  0  0  0
   -2.5984    2.0815    0.9204 C   0  0  0  0  0  0  0  0  0  0  0  0
   -2.6357    0.6365    0.8704 N   0  0  0  0  0  0  0  0  0  0  0  0
   -2.5547   -0.0159   -0.4284 C   0  0  0  0  0  0  0  0  0  0  0  0
   -3.3106   -1.3347   -0.4455 C   0  0  0  0  0  0  0  0  0  0  0  0
   -3.2025   -2.0567   -1.7940 C   0  0  0  0  0  0  0  0  0  0  0  0
   -1.8107   -2.6310   -2.0603 C   0  0  0  0  0  0  0  0  0  0  0  0
   -1.3304   -3.5082   -0.9080 C   0  0  0  0  0  0  0  0  0  0  0  0
   -1.3932   -2.7765    0.4275 C   0  0  0  0  0  0  0  0  0  0  0  0
   -2.7838   -2.1931    0.6885 C   0  0  0  0  0  0  0  0  0  0  0  0
   -2.7603   -1.4766    1.9319 O   0  0  0  0  0  0  0  0  0  0  0  0
   -2.6386   -0.1217    2.0477 C   0  0  0  0  0  0  0  0  0  0  0  0
   -2.5304    0.3449    3.1794 O   0  0  0  0  0  0  0  0  0  0  0  0
   -1.2140    5.0788   -1.0099 C   0  0  0  0  0  0  0  0  0  0  0  0
    0.0433    4.3831   -1.4494 C   0  0  0  0  0  0  0  0  0  0  0  0
    1.0225    5.0124   -1.8544 O   0  0  0  0  0  0  0  0  0  0  0  0
    2.4625   -1.9304    0.0318 C   0  0  0  0  0  0  0  0  0  0  0  0
    3.2043   -3.2547    0.0496 C   0  0  0  0  0  0  0  0  0  0  0  0
    4.0621   -3.4491    1.2021 N   0  0  0  0  0  0  0  0  0  0  0  0
    4.0661   -0.6295    2.0874 H   0  0  0  0  0  0  0  0  0  0  0  0
    5.8145   -0.6922    1.8818 H   0  0  0  0  0  0  0  0  0  0  0  0
    5.3630   -1.5096   -0.5443 H   0  0  0  0  0  0  0  0  0  0  0  0
    5.2229    0.1967   -0.1596 H   0  0  0  0  0  0  0  0  0  0  0  0
    3.3810   -0.8659   -1.5902 H   0  0  0  0  0  0  0  0  0  0  0  0
    2.9809    1.0345    0.5941 H   0  0  0  0  0  0  0  0  0  0  0  0
    2.0034    3.0099   -0.5216 H   0  0  0  0  0  0  0  0  0  0  0  0
    0.8027    2.2320    0.5238 H   0  0  0  0  0  0  0  0  0  0  0  0
    0.1862    2.5613   -2.4553 H   0  0  0  0  0  0  0  0  0  0  0  0
   -2.6456    5.9984    1.1352 H   0  0  0  0  0  0  0  0  0  0  0  0
   -3.8329    4.6463    2.8259 H   0  0  0  0  0  0  0  0  0  0  0  0
   -3.8453    2.2157    2.6981 H   0  0  0  0  0  0  0  0  0  0  0  0
   -3.0054    0.6288   -1.1923 H   0  0  0  0  0  0  0  0  0  0  0  0
   -1.4951   -0.1601   -0.6609 H   0  0  0  0  0  0  0  0  0  0  0  0
   -4.3687   -1.1105   -0.2515 H   0  0  0  0  0  0  0  0  0  0  0  0
   -3.9282   -2.8802   -1.8096 H   0  0  0  0  0  0  0  0  0  0  0  0
   -3.4821   -1.3797   -2.6097 H   0  0  0  0  0  0  0  0  0  0  0  0
   -1.8306   -3.2204   -2.9841 H   0  0  0  0  0  0  0  0  0  0  0  0
   -1.0950   -1.8172   -2.2252 H   0  0  0  0  0  0  0  0  0  0  0  0
   -1.9527   -4.4102   -0.8561 H   0  0  0  0  0  0  0  0  0  0  0  0
   -0.3044   -3.8416   -1.0996 H   0  0  0  0  0  0  0  0  0  0  0  0
   -0.6376   -1.9829    0.4601 H   0  0  0  0  0  0  0  0  0  0  0  0
   -1.1245   -3.4621    1.2406 H   0  0  0  0  0  0  0  0  0  0  0  0
   -3.4785   -3.0298    0.8357 H   0  0  0  0  0  0  0  0  0  0  0  0
   -0.9361    6.0635   -0.6180 H   0  0  0  0  0  0  0  0  0  0  0  0
   -1.8687    5.2089   -1.8776 H   0  0  0  0  0  0  0  0  0  0  0  0
    1.5882   -2.0276   -0.6233 H   0  0  0  0  0  0  0  0  0  0  0  0
    2.0695   -1.7010    1.0308 H   0  0  0  0  0  0  0  0  0  0  0  0
    2.4760   -4.0728    0.0817 H   0  0  0  0  0  0  0  0  0  0  0  0
    3.8098   -3.3946   -0.8522 H   0  0  0  0  0  0  0  0  0  0  0  0
    4.1728   -4.3985    1.5424 H   0  0  0  0  0  0  0  0  0  0  0  0
  1  2  2  0
  2  3  1  0
  3  4  1  0
  4  5  1  0
  5  6  1  0
  6  7  1  0
  7  8  2  0
  7  9  1  0
  9 10  1  0
 10 11  1  0
 11 12  1  0
 12 13  1  0
 13 14  2  0
 14 15  1  0
 15 16  2  0
 16 17  1  0
 17 18  1  0
 18 19  1  0
 19 20  1  0
 20 21  1  0
 21 22  1  0
 22 23  1  0
 23 24  1  0
 24 25  1  0
 25 26  1  0
 26 27  1  0
 27 28  2  0
 13 29  1  0
 29 30  1  0
 30 31  2  0
  5 32  1  0
 32 33  1  0
 33 34  1  0
 34  2  1  0
 30 10  1  0
 17 12  2  0
 27 18  1  0
 25 20  1  0
  3 35  1  0
  3 36  1  0
  4 37  1  0
  4 38  1  0
  5 39  1  0
  6 40  1  0
  9 41  1  0
  9 42  1  0
 10 43  1  0
 14 44  1  0
 15 45  1  0
 16 46  1  0
 19 47  1  0
 19 48  1  0
 20 49  1  0
 21 50  1  0
 21 51  1  0
 22 52  1  0
 22 53  1  0
 23 54  1  0
 23 55  1  0
 24 56  1  0
 24 57  1  0
 25 58  1  0
 29 59  1  0
 29 60  1  0
 32 61  1  0
 32 62  1  0
 33 63  1  0
 33 64  1  0
 34 65  1  0
M  END
>  <smiles>
O=C1CCC(NC(=O)CC2Oc3c(cccc3N3CC4CCCCC4OC3=O)CC2=O)CCN1

$$$$
