mol_a6f470a11ffa
     RDKit          3D

 56 58  0  0  0  0  0  0  0  0999 V2000
   -2.3223    4.4979   -2.4236 C   0  0  0  0  0  0  0  0  0  0  0  0
   -1.5909    3.1647   -2.4519 C   0  0  0  0  0  0  0  0  0  0  0  0
   -0.6315    3.0295   -1.2684 C   0  0  0  0  0  0  0  0  0  0  0  0
    0.1959    1.7283   -1.3007 C   0  0  0  0  0  0  0  0  0  0  0  0
    1.1599    1.7704   -0.2409 O   0  0  0  0  0  0  0  0  0  0  0  0
    2.4878    1.4152   -0.6296 C   0  0  0  0  0  0  0  0  0  0  0  0
    3.4057    1.6995    0.5589 C   0  0  0  0  0  0  0  0  0  0  0  0
    3.3828    0.4309    1.4198 C   0  0  0  0  0  0  0  0  0  0  0  0
    2.6491   -0.6369    0.5969 C   0  0  0  0  0  0  0  0  0  0  0  0
    3.2540   -2.0376    0.6954 C   0  0  0  0  0  0  0  0  0  0  0  0
    3.1504   -2.6201    2.0975 C   0  0  0  0  0  0  0  0  0  0  0  0
    2.6682   -0.0864   -0.8311 C   0  0  0  0  0  0  0  0  0  0  0  0
   -0.6251    0.5152   -1.2007 N   0  0  0  0  0  0  0  0  0  0  0  0
   -0.8023   -0.1858   -2.3808 C   0  0  0  0  0  0  0  0  0  0  0  0
   -0.3301    0.1509   -3.4666 O   0  0  0  0  0  0  0  0  0  0  0  0
   -1.5460   -1.3205   -2.3203 N   0  0  0  0  0  0  0  0  0  0  0  0
   -2.1499   -1.8614   -1.2226 C   0  0  0  0  0  0  0  0  0  0  0  0
   -2.7555   -2.9201   -1.3353 O   0  0  0  0  0  0  0  0  0  0  0  0
   -2.0195   -1.1041    0.0481 C   0  0  0  0  0  0  0  0  0  0  0  0
   -2.6401   -1.5471    1.2472 C   0  0  0  0  0  0  0  0  0  0  0  0
   -3.4698   -2.8076    1.3729 C   0  0  0  0  0  0  0  0  0  0  0  0
   -2.6092   -4.0424    1.6017 C   0  0  0  0  0  0  0  0  0  0  0  0
   -2.4651   -0.7916    2.4176 C   0  0  0  0  0  0  0  0  0  0  0  0
   -1.7127    0.3725    2.4031 C   0  0  0  0  0  0  0  0  0  0  0  0
   -1.1163    0.8021    1.2189 C   0  0  0  0  0  0  0  0  0  0  0  0
   -1.2490    0.0815    0.0207 C   0  0  0  0  0  0  0  0  0  0  0  0
   -1.6173    5.3336   -2.4760 H   0  0  0  0  0  0  0  0  0  0  0  0
   -2.9122    4.6022   -1.5074 H   0  0  0  0  0  0  0  0  0  0  0  0
   -3.0035    4.5744   -3.2769 H   0  0  0  0  0  0  0  0  0  0  0  0
   -2.3312    2.3574   -2.4338 H   0  0  0  0  0  0  0  0  0  0  0  0
   -1.0362    3.0808   -3.3934 H   0  0  0  0  0  0  0  0  0  0  0  0
    0.0646    3.8789   -1.2642 H   0  0  0  0  0  0  0  0  0  0  0  0
   -1.1956    3.1159   -0.3337 H   0  0  0  0  0  0  0  0  0  0  0  0
    0.7365    1.7369   -2.2548 H   0  0  0  0  0  0  0  0  0  0  0  0
    2.7904    2.0037   -1.5026 H   0  0  0  0  0  0  0  0  0  0  0  0
    3.0925    2.5748    1.1372 H   0  0  0  0  0  0  0  0  0  0  0  0
    4.4297    1.8705    0.2060 H   0  0  0  0  0  0  0  0  0  0  0  0
    2.8565    0.6102    2.3642 H   0  0  0  0  0  0  0  0  0  0  0  0
    4.4077    0.1340    1.6691 H   0  0  0  0  0  0  0  0  0  0  0  0
    1.6075   -0.6835    0.9397 H   0  0  0  0  0  0  0  0  0  0  0  0
    2.7331   -2.7055   -0.0013 H   0  0  0  0  0  0  0  0  0  0  0  0
    4.3070   -2.0191    0.3899 H   0  0  0  0  0  0  0  0  0  0  0  0
    2.1070   -2.6667    2.4259 H   0  0  0  0  0  0  0  0  0  0  0  0
    3.5560   -3.6367    2.1137 H   0  0  0  0  0  0  0  0  0  0  0  0
    3.7128   -2.0231    2.8217 H   0  0  0  0  0  0  0  0  0  0  0  0
    1.8885   -0.5466   -1.4411 H   0  0  0  0  0  0  0  0  0  0  0  0
    3.6360   -0.2853   -1.3081 H   0  0  0  0  0  0  0  0  0  0  0  0
   -1.6513   -1.8294   -3.1845 H   0  0  0  0  0  0  0  0  0  0  0  0
   -4.1315   -2.9323    0.5108 H   0  0  0  0  0  0  0  0  0  0  0  0
   -4.1588   -2.7053    2.2222 H   0  0  0  0  0  0  0  0  0  0  0  0
   -2.0313   -3.9517    2.5280 H   0  0  0  0  0  0  0  0  0  0  0  0
   -1.8997   -4.2055    0.7848 H   0  0  0  0  0  0  0  0  0  0  0  0
   -3.2412   -4.9322    1.6850 H   0  0  0  0  0  0  0  0  0  0  0  0
   -2.9171   -1.1127    3.3548 H   0  0  0  0  0  0  0  0  0  0  0  0
   -1.5822    0.9494    3.3158 H   0  0  0  0  0  0  0  0  0  0  0  0
   -0.5354    1.7162    1.2829 H   0  0  0  0  0  0  0  0  0  0  0  0
  1  2  1  0
  2  3  1  0
  3  4  1  0
  4  5  1  0
  5  6  1  0
  6  7  1  0
  7  8  1  0
  8  9  1  0
  9 10  1  0
 10 11  1  0
  9 12  1  0
  4 13  1  0
 13 14  1  0
 14 15  2  0
 14 16  1  0
 16 17  1  0
 17 18  2  0
 17 19  1  0
 19 20  1  0
 20 21  1  0
 21 22  1  0
 20 23  2  0
 23 24  1  0
 24 25  2  0
 25 26  1  0
 12  6  1  0
 26 13  1  0
 26 19  2  0
  1 27  1  0
  1 28  1  0
  1 29  1  0
  2 30  1  0
  2 31  1  0
  3 32  1  0
  3 33  1  0
  4 34  1  0
  6 35  1  0
  7 36  1  0
  7 37  1  0
  8 38  1  0
  8 39  1  0
  9 40  1  0
 10 41  1  0
 10 42  1  0
 11 43  1  0
 11 44  1  0
 11 45  1  0
 12 46  1  0
 12 47  1  0
 16 48  1  0
 21 49  1  0
 21 50  1  0
 22 51  1  0
 22 52  1  0
 22 53  1  0
 23 54  1  0
 24 55  1  0
 25 56  1  0
M  END
>  <smiles>
CCCC(OC1CCC(CC)C1)n1c(=O)[nH]c(=O)c2c(CC)cccc21

$$$$
