mol_bc7a93691bd0
     RDKit          3D

 55 57  0  0  0  0  0  0  0  0999 V2000
   -3.4965   -4.8456    0.1221 O   0  0  0  0  0  0  0  0  0  0  0  0
   -3.8621   -3.9979    0.9167 C   0  0  0  0  0  0  0  0  0  0  0  0
   -4.3086   -4.3515    2.1385 O   0  0  0  0  0  0  0  0  0  0  0  0
   -3.8663   -2.5039    0.7337 C   0  0  0  0  0  0  0  0  0  0  0  0
   -3.5985   -2.1154   -0.7187 C   0  0  0  0  0  0  0  0  0  0  0  0
   -3.6982   -0.6063   -0.9822 C   0  0  0  0  0  0  0  0  0  0  0  0
   -4.1763   -0.4613   -2.3269 O   0  0  0  0  0  0  0  0  0  0  0  0
   -2.3669    0.1498   -0.8893 C   0  0  0  0  0  0  0  0  0  0  0  0
   -1.7186    0.2400    0.4993 C   0  0  0  0  0  0  0  0  0  0  0  0
   -2.5751    0.8653    1.5963 C   0  0  0  0  0  0  0  0  0  0  0  0
   -2.8345    2.3299    1.2932 C   0  0  0  0  0  0  0  0  0  0  0  0
   -1.5637    3.0158    0.8810 C   0  0  0  0  0  0  0  0  0  0  0  0
   -1.5279    4.4164    0.8527 C   0  0  0  0  0  0  0  0  0  0  0  0
   -0.3754    5.0810    0.4491 C   0  0  0  0  0  0  0  0  0  0  0  0
    0.7577    4.3508    0.0933 C   0  0  0  0  0  0  0  0  0  0  0  0
    0.7584    2.9479    0.1418 C   0  0  0  0  0  0  0  0  0  0  0  0
    1.9762    2.3301   -0.2108 N   0  0  0  0  0  0  0  0  0  0  0  0
    2.4337    1.0767    0.0783 C   0  0  0  0  0  0  0  0  0  0  0  0
    1.9658    0.2322    0.8228 O   0  0  0  0  0  0  0  0  0  0  0  0
    3.6165    0.9178   -0.5821 O   0  0  0  0  0  0  0  0  0  0  0  0
    4.2726   -0.3488   -0.3959 C   0  0  0  0  0  0  0  0  0  0  0  0
    3.6068   -1.4308   -1.2561 C   0  0  0  0  0  0  0  0  0  0  0  0
    4.5953   -2.5096   -1.6961 C   0  0  0  0  0  0  0  0  0  0  0  0
    5.7589   -2.6141   -0.7222 C   0  0  0  0  0  0  0  0  0  0  0  0
    6.5067   -1.4005   -0.6291 O   0  0  0  0  0  0  0  0  0  0  0  0
    5.7418   -0.2047   -0.7948 C   0  0  0  0  0  0  0  0  0  0  0  0
   -0.4305    2.2799    0.4898 C   0  0  0  0  0  0  0  0  0  0  0  0
   -0.4612    0.9184    0.3737 O   0  0  0  0  0  0  0  0  0  0  0  0
   -4.2443   -5.3299    2.1379 H   0  0  0  0  0  0  0  0  0  0  0  0
   -4.8509   -2.1281    1.0344 H   0  0  0  0  0  0  0  0  0  0  0  0
   -3.1096   -2.0900    1.4030 H   0  0  0  0  0  0  0  0  0  0  0  0
   -2.6166   -2.4902   -1.0352 H   0  0  0  0  0  0  0  0  0  0  0  0
   -4.3240   -2.6424   -1.3541 H   0  0  0  0  0  0  0  0  0  0  0  0
   -4.4564   -0.1498   -0.3381 H   0  0  0  0  0  0  0  0  0  0  0  0
   -4.2439    0.4887   -2.5239 H   0  0  0  0  0  0  0  0  0  0  0  0
   -2.5024    1.1596   -1.2995 H   0  0  0  0  0  0  0  0  0  0  0  0
   -1.6465   -0.3034   -1.5856 H   0  0  0  0  0  0  0  0  0  0  0  0
   -1.4553   -0.7748    0.8147 H   0  0  0  0  0  0  0  0  0  0  0  0
   -2.0282    0.7967    2.5466 H   0  0  0  0  0  0  0  0  0  0  0  0
   -3.5207    0.3332    1.7360 H   0  0  0  0  0  0  0  0  0  0  0  0
   -3.2518    2.8115    2.1854 H   0  0  0  0  0  0  0  0  0  0  0  0
   -3.5710    2.4281    0.4870 H   0  0  0  0  0  0  0  0  0  0  0  0
   -2.4041    4.9943    1.1392 H   0  0  0  0  0  0  0  0  0  0  0  0
   -0.3537    6.1675    0.4223 H   0  0  0  0  0  0  0  0  0  0  0  0
    1.6529    4.8956   -0.1966 H   0  0  0  0  0  0  0  0  0  0  0  0
    2.6682    2.8954   -0.6794 H   0  0  0  0  0  0  0  0  0  0  0  0
    4.2395   -0.6421    0.6623 H   0  0  0  0  0  0  0  0  0  0  0  0
    2.7978   -1.8927   -0.6765 H   0  0  0  0  0  0  0  0  0  0  0  0
    3.1235   -0.9934   -2.1384 H   0  0  0  0  0  0  0  0  0  0  0  0
    4.0829   -3.4722   -1.7965 H   0  0  0  0  0  0  0  0  0  0  0  0
    4.9841   -2.2429   -2.6868 H   0  0  0  0  0  0  0  0  0  0  0  0
    5.4048   -2.8789    0.2808 H   0  0  0  0  0  0  0  0  0  0  0  0
    6.4496   -3.4018   -1.0398 H   0  0  0  0  0  0  0  0  0  0  0  0
    5.8258    0.1156   -1.8409 H   0  0  0  0  0  0  0  0  0  0  0  0
    6.2200    0.5845   -0.2038 H   0  0  0  0  0  0  0  0  0  0  0  0
  1  2  2  0
  2  3  1  0
  2  4  1  0
  4  5  1  0
  5  6  1  0
  6  7  1  0
  6  8  1  0
  8  9  1  0
  9 10  1  0
 10 11  1  0
 11 12  1  0
 12 13  2  0
 13 14  1  0
 14 15  2  0
 15 16  1  0
 16 17  1  0
 17 18  1  0
 18 19  2  0
 18 20  1  0
 20 21  1  0
 21 22  1  0
 22 23  1  0
 23 24  1  0
 24 25  1  0
 25 26  1  0
 16 27  2  0
 27 28  1  0
 28  9  1  0
 27 12  1  0
 26 21  1  0
  3 29  1  0
  4 30  1  0
  4 31  1  0
  5 32  1  0
  5 33  1  0
  6 34  1  0
  7 35  1  0
  8 36  1  0
  8 37  1  0
  9 38  1  0
 10 39  1  0
 10 40  1  0
 11 41  1  0
 11 42  1  0
 13 43  1  0
 14 44  1  0
 15 45  1  0
 17 46  1  0
 21 47  1  0
 22 48  1  0
 22 49  1  0
 23 50  1  0
 23 51  1  0
 24 52  1  0
 24 53  1  0
 26 54  1  0
 26 55  1  0
M  END
>  <smiles>
O=C(O)CCC(O)CC1CCc2cccc(NC(=O)OC3CCCOC3)c2O1

$$$$
