mol_7f2b6abcffc5
     RDKit          3D

 46 49  0  0  0  0  0  0  0  0999 V2000
    5.2693    2.6419    0.8253 C   0  0  0  0  0  0  0  0  0  0  0  0
    5.4266    1.2411    1.0102 O   0  0  0  0  0  0  0  0  0  0  0  0
    4.3030    0.4706    0.8836 C   0  0  0  0  0  0  0  0  0  0  0  0
    4.5105   -0.8977    1.0823 C   0  0  0  0  0  0  0  0  0  0  0  0
    3.4512   -1.8036    0.9942 C   0  0  0  0  0  0  0  0  0  0  0  0
    2.1680   -1.3462    0.6894 C   0  0  0  0  0  0  0  0  0  0  0  0
    1.9564    0.0263    0.4810 C   0  0  0  0  0  0  0  0  0  0  0  0
    3.0195    0.9329    0.5884 C   0  0  0  0  0  0  0  0  0  0  0  0
    0.5445    0.4755    0.1932 C   0  0  0  0  0  0  0  0  0  0  0  0
   -0.1434   -0.4981   -0.7894 C   0  0  0  0  0  0  0  0  0  0  0  0
   -1.6365   -0.1741   -1.1322 C   0  0  0  0  0  0  0  0  0  0  0  0
   -2.4741    0.4397    0.0171 C   0  0  0  0  0  0  0  0  0  0  0  0
   -3.9643    0.5993   -0.2883 C   0  0  0  0  0  0  0  0  0  0  0  0
   -4.4401    1.6679    0.6860 C   0  0  0  0  0  0  0  0  0  0  0  0
   -3.1703    2.3230    1.2031 C   0  0  0  0  0  0  0  0  0  0  0  0
   -2.0954    1.8307    0.3339 N   0  0  0  0  0  0  0  0  0  0  0  0
   -2.3531   -1.4142   -1.7203 C   0  0  0  0  0  0  0  0  0  0  0  0
   -1.3872   -2.4206   -2.3232 C   0  0  0  0  0  0  0  0  0  0  0  0
   -0.4833   -2.9256   -1.2242 C   0  0  0  0  0  0  0  0  0  0  0  0
   -0.2596   -4.1225   -1.0721 O   0  0  0  0  0  0  0  0  0  0  0  0
    0.0529   -1.9202   -0.4344 N   0  0  0  0  0  0  0  0  0  0  0  0
    0.9825   -2.2764    0.6356 C   0  0  0  0  0  0  0  0  0  0  0  0
    6.2501    3.1087    0.9581 H   0  0  0  0  0  0  0  0  0  0  0  0
    4.9269    2.8705   -0.1894 H   0  0  0  0  0  0  0  0  0  0  0  0
    4.5946    3.0662    1.5762 H   0  0  0  0  0  0  0  0  0  0  0  0
    5.5088   -1.2603    1.3157 H   0  0  0  0  0  0  0  0  0  0  0  0
    3.6369   -2.8611    1.1651 H   0  0  0  0  0  0  0  0  0  0  0  0
    2.8188    1.9883    0.4395 H   0  0  0  0  0  0  0  0  0  0  0  0
    0.5512    1.4848   -0.2334 H   0  0  0  0  0  0  0  0  0  0  0  0
    0.0245    0.5037    1.1574 H   0  0  0  0  0  0  0  0  0  0  0  0
    0.4048   -0.4013   -1.7404 H   0  0  0  0  0  0  0  0  0  0  0  0
   -1.6004    0.5764   -1.9368 H   0  0  0  0  0  0  0  0  0  0  0  0
   -2.3523   -0.1803    0.9159 H   0  0  0  0  0  0  0  0  0  0  0  0
   -4.5235   -0.3322   -0.1557 H   0  0  0  0  0  0  0  0  0  0  0  0
   -4.1226    0.9462   -1.3173 H   0  0  0  0  0  0  0  0  0  0  0  0
   -5.0899    2.3874    0.1766 H   0  0  0  0  0  0  0  0  0  0  0  0
   -5.0075    1.2234    1.5108 H   0  0  0  0  0  0  0  0  0  0  0  0
   -2.9744    2.0213    2.2383 H   0  0  0  0  0  0  0  0  0  0  0  0
   -3.2317    3.4154    1.1806 H   0  0  0  0  0  0  0  0  0  0  0  0
   -2.1114    2.3820   -0.5264 H   0  0  0  0  0  0  0  0  0  0  0  0
   -2.9236   -1.9227   -0.9318 H   0  0  0  0  0  0  0  0  0  0  0  0
   -3.0761   -1.0965   -2.4808 H   0  0  0  0  0  0  0  0  0  0  0  0
   -1.9431   -3.2675   -2.7396 H   0  0  0  0  0  0  0  0  0  0  0  0
   -0.7841   -1.9816   -3.1246 H   0  0  0  0  0  0  0  0  0  0  0  0
    1.3156   -3.3134    0.5217 H   0  0  0  0  0  0  0  0  0  0  0  0
    0.4314   -2.2074    1.5811 H   0  0  0  0  0  0  0  0  0  0  0  0
  1  2  1  0
  2  3  1  0
  3  4  1  0
  4  5  2  0
  5  6  1  0
  6  7  2  0
  7  8  1  0
  7  9  1  0
  9 10  1  0
 10 11  1  0
 11 12  1  0
 12 13  1  0
 13 14  1  0
 14 15  1  0
 15 16  1  0
 11 17  1  0
 17 18  1  0
 18 19  1  0
 19 20  2  0
 19 21  1  0
 21 22  1  0
  8  3  2  0
 21 10  1  0
 22  6  1  0
 16 12  1  0
  1 23  1  0
  1 24  1  0
  1 25  1  0
  4 26  1  0
  5 27  1  0
  8 28  1  0
  9 29  1  0
  9 30  1  0
 10 31  1  0
 11 32  1  0
 12 33  1  0
 13 34  1  0
 13 35  1  0
 14 36  1  0
 14 37  1  0
 15 38  1  0
 15 39  1  0
 16 40  1  0
 17 41  1  0
 17 42  1  0
 18 43  1  0
 18 44  1  0
 22 45  1  0
 22 46  1  0
M  END
>  <smiles>
COc1ccc2c(c1)CC1C(C3CCCN3)CCC(=O)N1C2

$$$$
