mol_33affbcc51f8
     RDKit          3D

 62 64  0  0  0  0  0  0  0  0999 V2000
   -0.6724   -2.6097    2.7074 C   0  0  0  0  0  0  0  0  0  0  0  0
    0.4277   -1.5724    2.5269 C   0  0  0  0  0  0  0  0  0  0  0  0
   -0.1092   -0.1757    2.1766 C   0  0  0  0  0  0  0  0  0  0  0  0
   -0.6863   -0.0441    0.7432 C   0  0  0  0  0  0  0  0  0  0  0  0
    0.2386    0.5162   -0.1875 O   0  0  0  0  0  0  0  0  0  0  0  0
    1.2879   -0.3344   -0.6091 C   0  0  0  0  0  0  0  0  0  0  0  0
    1.5584   -0.1095   -2.0952 C   0  0  0  0  0  0  0  0  0  0  0  0
    3.0335   -0.4495   -2.3049 C   0  0  0  0  0  0  0  0  0  0  0  0
    3.6433   -0.5957   -0.9007 C   0  0  0  0  0  0  0  0  0  0  0  0
    5.0502    0.0044   -0.8053 C   0  0  0  0  0  0  0  0  0  0  0  0
    5.6925   -0.0584    0.5946 C   0  0  0  0  0  0  0  0  0  0  0  0
    5.8500   -1.4921    1.1024 C   0  0  0  0  0  0  0  0  0  0  0  0
    7.0589    0.6324    0.5668 C   0  0  0  0  0  0  0  0  0  0  0  0
    2.6177    0.0579    0.0231 C   0  0  0  0  0  0  0  0  0  0  0  0
   -1.9001    0.7877    0.6539 N   0  0  0  0  0  0  0  0  0  0  0  0
   -1.9297    1.9834    1.3533 C   0  0  0  0  0  0  0  0  0  0  0  0
   -1.0105    2.4350    2.0346 O   0  0  0  0  0  0  0  0  0  0  0  0
   -3.0914    2.6915    1.3053 N   0  0  0  0  0  0  0  0  0  0  0  0
   -4.2440    2.3579    0.6559 C   0  0  0  0  0  0  0  0  0  0  0  0
   -5.2532    3.0292    0.8344 O   0  0  0  0  0  0  0  0  0  0  0  0
   -4.1765    1.1763   -0.2428 C   0  0  0  0  0  0  0  0  0  0  0  0
   -5.2665    0.8228   -1.0917 C   0  0  0  0  0  0  0  0  0  0  0  0
   -6.5649    1.6135   -1.0941 C   0  0  0  0  0  0  0  0  0  0  0  0
   -7.6671    1.1721   -2.0540 C   0  0  0  0  0  0  0  0  0  0  0  0
   -5.1083   -0.2805   -1.9436 C   0  0  0  0  0  0  0  0  0  0  0  0
   -3.9176   -0.9956   -1.9732 C   0  0  0  0  0  0  0  0  0  0  0  0
   -2.8626   -0.6389   -1.1362 C   0  0  0  0  0  0  0  0  0  0  0  0
   -2.9740    0.4335   -0.2368 C   0  0  0  0  0  0  0  0  0  0  0  0
   -1.3910   -2.2909    3.4692 H   0  0  0  0  0  0  0  0  0  0  0  0
   -0.2395   -3.5618    3.0307 H   0  0  0  0  0  0  0  0  0  0  0  0
   -1.2166   -2.7920    1.7767 H   0  0  0  0  0  0  0  0  0  0  0  0
    0.9831   -1.4984    3.4699 H   0  0  0  0  0  0  0  0  0  0  0  0
    1.1378   -1.9244    1.7741 H   0  0  0  0  0  0  0  0  0  0  0  0
   -0.8807    0.0548    2.9218 H   0  0  0  0  0  0  0  0  0  0  0  0
    0.7063    0.5446    2.3120 H   0  0  0  0  0  0  0  0  0  0  0  0
   -0.9460   -1.0540    0.4257 H   0  0  0  0  0  0  0  0  0  0  0  0
    1.0601   -1.3946   -0.4447 H   0  0  0  0  0  0  0  0  0  0  0  0
    1.3670    0.9344   -2.3740 H   0  0  0  0  0  0  0  0  0  0  0  0
    0.9025   -0.7250   -2.7199 H   0  0  0  0  0  0  0  0  0  0  0  0
    3.5188    0.3380   -2.8922 H   0  0  0  0  0  0  0  0  0  0  0  0
    3.1436   -1.3852   -2.8647 H   0  0  0  0  0  0  0  0  0  0  0  0
    3.6896   -1.6684   -0.6720 H   0  0  0  0  0  0  0  0  0  0  0  0
    5.7001   -0.5087   -1.5265 H   0  0  0  0  0  0  0  0  0  0  0  0
    5.0102    1.0550   -1.1232 H   0  0  0  0  0  0  0  0  0  0  0  0
    5.0612    0.4900    1.3041 H   0  0  0  0  0  0  0  0  0  0  0  0
    4.8776   -1.9684    1.2599 H   0  0  0  0  0  0  0  0  0  0  0  0
    6.3764   -1.5082    2.0629 H   0  0  0  0  0  0  0  0  0  0  0  0
    6.4200   -2.1035    0.3948 H   0  0  0  0  0  0  0  0  0  0  0  0
    7.5142    0.6347    1.5629 H   0  0  0  0  0  0  0  0  0  0  0  0
    6.9619    1.6742    0.2433 H   0  0  0  0  0  0  0  0  0  0  0  0
    7.7468    0.1263   -0.1191 H   0  0  0  0  0  0  0  0  0  0  0  0
    2.7285    1.1495    0.0477 H   0  0  0  0  0  0  0  0  0  0  0  0
    2.7061   -0.2969    1.0534 H   0  0  0  0  0  0  0  0  0  0  0  0
   -3.1152    3.5304    1.8640 H   0  0  0  0  0  0  0  0  0  0  0  0
   -6.9905    1.5751   -0.0843 H   0  0  0  0  0  0  0  0  0  0  0  0
   -6.3309    2.6561   -1.3404 H   0  0  0  0  0  0  0  0  0  0  0  0
   -8.5370    1.8293   -1.9505 H   0  0  0  0  0  0  0  0  0  0  0  0
   -7.9968    0.1497   -1.8416 H   0  0  0  0  0  0  0  0  0  0  0  0
   -7.3343    1.2234   -3.0960 H   0  0  0  0  0  0  0  0  0  0  0  0
   -5.9017   -0.5975   -2.6160 H   0  0  0  0  0  0  0  0  0  0  0  0
   -3.8057   -1.8311   -2.6610 H   0  0  0  0  0  0  0  0  0  0  0  0
   -1.9502   -1.2139   -1.2503 H   0  0  0  0  0  0  0  0  0  0  0  0
  1  2  1  0
  2  3  1  0
  3  4  1  0
  4  5  1  0
  5  6  1  0
  6  7  1  0
  7  8  1  0
  8  9  1  0
  9 10  1  0
 10 11  1  0
 11 12  1  0
 11 13  1  0
  9 14  1  0
  4 15  1  0
 15 16  1  0
 16 17  2  0
 16 18  1  0
 18 19  1  0
 19 20  2  0
 19 21  1  0
 21 22  1  0
 22 23  1  0
 23 24  1  0
 22 25  2  0
 25 26  1  0
 26 27  2  0
 27 28  1  0
 14  6  1  0
 28 15  1  0
 28 21  2  0
  1 29  1  0
  1 30  1  0
  1 31  1  0
  2 32  1  0
  2 33  1  0
  3 34  1  0
  3 35  1  0
  4 36  1  0
  6 37  1  0
  7 38  1  0
  7 39  1  0
  8 40  1  0
  8 41  1  0
  9 42  1  0
 10 43  1  0
 10 44  1  0
 11 45  1  0
 12 46  1  0
 12 47  1  0
 12 48  1  0
 13 49  1  0
 13 50  1  0
 13 51  1  0
 14 52  1  0
 14 53  1  0
 18 54  1  0
 23 55  1  0
 23 56  1  0
 24 57  1  0
 24 58  1  0
 24 59  1  0
 25 60  1  0
 26 61  1  0
 27 62  1  0
M  END
>  <smiles>
CCCC(OC1CCC(CC(C)C)C1)n1c(=O)[nH]c(=O)c2c(CC)cccc21

$$$$
