mol_2042c317d280
     RDKit          3D

 42 44  0  0  0  0  0  0  0  0999 V2000
    2.9043   -2.0095    0.2078 O   0  0  0  0  0  0  0  0  0  0  0  0
    2.5504   -0.8472    0.0004 C   0  0  0  0  0  0  0  0  0  0  0  0
    1.2284   -0.5214   -0.7175 C   0  0  0  0  0  0  0  0  0  0  0  0
    0.4690   -1.8079   -1.1075 C   0  0  0  0  0  0  0  0  0  0  0  0
   -0.1841   -2.6170    0.0209 C   0  0  0  0  0  0  0  0  0  0  0  0
   -0.9642   -1.8208    1.0639 C   0  0  0  0  0  0  0  0  0  0  0  0
   -1.7118   -0.7223    0.4451 N   0  0  0  0  0  0  0  0  0  0  0  0
   -3.1600   -0.9405    0.3063 C   0  0  0  0  0  0  0  0  0  0  0  0
   -3.8726    0.2284   -0.3426 C   0  0  0  0  0  0  0  0  0  0  0  0
   -5.3603    0.0444   -0.4579 C   0  0  0  0  0  0  0  0  0  0  0  0
   -6.0192    1.2349   -0.8667 O   0  0  0  0  0  0  0  0  0  0  0  0
   -3.2051    1.3135   -0.7782 C   0  0  0  0  0  0  0  0  0  0  0  0
   -1.7742    1.4097   -0.6335 C   0  0  0  0  0  0  0  0  0  0  0  0
   -1.0762    0.4218   -0.0474 C   0  0  0  0  0  0  0  0  0  0  0  0
    0.4262    0.5129    0.1046 C   0  0  0  0  0  0  0  0  0  0  0  0
    3.3598    0.2397    0.3063 N   0  0  0  0  0  0  0  0  0  0  0  0
    3.7456    1.1526   -0.6678 C   0  0  0  0  0  0  0  0  0  0  0  0
    4.5335    2.1960   -0.3804 C   0  0  0  0  0  0  0  0  0  0  0  0
    5.0100    2.3850    0.9630 C   0  0  0  0  0  0  0  0  0  0  0  0
    4.6573    1.5310    1.9308 C   0  0  0  0  0  0  0  0  0  0  0  0
    3.7477    0.3860    1.6350 C   0  0  0  0  0  0  0  0  0  0  0  0
    3.3615   -0.2987    2.5796 O   0  0  0  0  0  0  0  0  0  0  0  0
    1.4897   -0.0498   -1.6737 H   0  0  0  0  0  0  0  0  0  0  0  0
    1.1454   -2.4771   -1.6559 H   0  0  0  0  0  0  0  0  0  0  0  0
   -0.3098   -1.5413   -1.8353 H   0  0  0  0  0  0  0  0  0  0  0  0
   -0.8643   -3.3408   -0.4472 H   0  0  0  0  0  0  0  0  0  0  0  0
    0.5743   -3.2164    0.5379 H   0  0  0  0  0  0  0  0  0  0  0  0
   -0.2850   -1.4319    1.8314 H   0  0  0  0  0  0  0  0  0  0  0  0
   -1.6407   -2.4994    1.5988 H   0  0  0  0  0  0  0  0  0  0  0  0
   -3.3292   -1.8416   -0.2956 H   0  0  0  0  0  0  0  0  0  0  0  0
   -3.5873   -1.1094    1.3023 H   0  0  0  0  0  0  0  0  0  0  0  0
   -5.5863   -0.7368   -1.1904 H   0  0  0  0  0  0  0  0  0  0  0  0
   -5.7877   -0.2553    0.5048 H   0  0  0  0  0  0  0  0  0  0  0  0
   -5.8406    1.8979   -0.1779 H   0  0  0  0  0  0  0  0  0  0  0  0
   -3.7094    2.1401   -1.2685 H   0  0  0  0  0  0  0  0  0  0  0  0
   -1.2914    2.3018   -1.0179 H   0  0  0  0  0  0  0  0  0  0  0  0
    0.7685    1.5167   -0.1833 H   0  0  0  0  0  0  0  0  0  0  0  0
    0.6720    0.4431    1.1723 H   0  0  0  0  0  0  0  0  0  0  0  0
    3.4147    0.9745   -1.6859 H   0  0  0  0  0  0  0  0  0  0  0  0
    4.8462    2.8967   -1.1485 H   0  0  0  0  0  0  0  0  0  0  0  0
    5.6651    3.2253    1.1702 H   0  0  0  0  0  0  0  0  0  0  0  0
    4.9898    1.6329    2.9561 H   0  0  0  0  0  0  0  0  0  0  0  0
  1  2  2  0
  2  3  1  0
  3  4  1  0
  4  5  1  0
  5  6  1  0
  6  7  1  0
  7  8  1  0
  8  9  1  0
  9 10  1  0
 10 11  1  0
  9 12  2  0
 12 13  1  0
 13 14  2  0
 14 15  1  0
  2 16  1  0
 16 17  1  0
 17 18  2  0
 18 19  1  0
 19 20  2  0
 20 21  1  0
 21 22  2  0
 15  3  1  0
 21 16  1  0
 14  7  1  0
  3 23  1  0
  4 24  1  0
  4 25  1  0
  5 26  1  0
  5 27  1  0
  6 28  1  0
  6 29  1  0
  8 30  1  0
  8 31  1  0
 10 32  1  0
 10 33  1  0
 11 34  1  0
 12 35  1  0
 13 36  1  0
 15 37  1  0
 15 38  1  0
 17 39  1  0
 18 40  1  0
 19 41  1  0
 20 42  1  0
M  END
>  <smiles>
O=C(C1CCCN2CC(CO)=CC=C2C1)n1ccccc1=O

$$$$
