mol_61c642e3a971
     RDKit          3D

 35 38  0  0  0  0  0  0  0  0999 V2000
    4.8763    2.5758   -0.5792 O   0  0  0  0  0  0  0  0  0  0  0  0
    4.0528    1.6651   -0.6162 C   0  0  0  0  0  0  0  0  0  0  0  0
    4.3580    0.3224   -1.2295 C   0  0  0  0  0  0  0  0  0  0  0  0
    3.6185   -0.8062   -0.5295 C   0  0  0  0  0  0  0  0  0  0  0  0
    2.1619   -0.4863   -0.3242 C   0  0  0  0  0  0  0  0  0  0  0  0
    1.7949    0.8506   -0.1364 C   0  0  0  0  0  0  0  0  0  0  0  0
    0.4722    1.2078    0.1424 C   0  0  0  0  0  0  0  0  0  0  0  0
   -0.5408    0.2383    0.2211 C   0  0  0  0  0  0  0  0  0  0  0  0
   -0.1780   -1.1121   -0.0019 C   0  0  0  0  0  0  0  0  0  0  0  0
    1.1652   -1.4624   -0.2257 C   0  0  0  0  0  0  0  0  0  0  0  0
    1.4541   -2.7962   -0.3310 O   0  0  0  0  0  0  0  0  0  0  0  0
   -1.2523   -2.1761    0.0836 C   0  0  0  0  0  0  0  0  0  0  0  0
   -2.5933   -1.6647   -0.4439 C   0  0  0  0  0  0  0  0  0  0  0  0
   -2.9721   -0.3540    0.2007 C   0  0  0  0  0  0  0  0  0  0  0  0
   -4.3232   -0.0558    0.4350 C   0  0  0  0  0  0  0  0  0  0  0  0
   -4.6828    1.1553    1.0175 C   0  0  0  0  0  0  0  0  0  0  0  0
   -3.6975    2.0729    1.3643 C   0  0  0  0  0  0  0  0  0  0  0  0
   -2.3508    1.7866    1.1169 C   0  0  0  0  0  0  0  0  0  0  0  0
   -1.9571    0.5781    0.5155 C   0  0  0  0  0  0  0  0  0  0  0  0
    2.7657    1.8576   -0.1959 N   0  0  0  0  0  0  0  0  0  0  0  0
    4.0654    0.3728   -2.2856 H   0  0  0  0  0  0  0  0  0  0  0  0
    5.4377    0.1442   -1.1861 H   0  0  0  0  0  0  0  0  0  0  0  0
    3.7390   -1.7104   -1.1361 H   0  0  0  0  0  0  0  0  0  0  0  0
    4.0681   -0.9968    0.4528 H   0  0  0  0  0  0  0  0  0  0  0  0
    0.2326    2.2590    0.2716 H   0  0  0  0  0  0  0  0  0  0  0  0
    2.3971   -2.9402   -0.1590 H   0  0  0  0  0  0  0  0  0  0  0  0
   -0.9784   -3.0634   -0.4980 H   0  0  0  0  0  0  0  0  0  0  0  0
   -1.3468   -2.4828    1.1331 H   0  0  0  0  0  0  0  0  0  0  0  0
   -3.3608   -2.4238   -0.2520 H   0  0  0  0  0  0  0  0  0  0  0  0
   -2.5427   -1.5117   -1.5295 H   0  0  0  0  0  0  0  0  0  0  0  0
   -5.0983   -0.7701    0.1676 H   0  0  0  0  0  0  0  0  0  0  0  0
   -5.7292    1.3809    1.2047 H   0  0  0  0  0  0  0  0  0  0  0  0
   -3.9737    3.0156    1.8298 H   0  0  0  0  0  0  0  0  0  0  0  0
   -1.6165    2.5272    1.4202 H   0  0  0  0  0  0  0  0  0  0  0  0
    2.5349    2.8029    0.0828 H   0  0  0  0  0  0  0  0  0  0  0  0
  1  2  2  0
  2  3  1  0
  3  4  1  0
  4  5  1  0
  5  6  2  0
  6  7  1  0
  7  8  2  0
  8  9  1  0
  9 10  2  0
 10 11  1  0
  9 12  1  0
 12 13  1  0
 13 14  1  0
 14 15  2  0
 15 16  1  0
 16 17  2  0
 17 18  1  0
 18 19  2  0
  6 20  1  0
 20  2  1  0
 10  5  1  0
 19 14  1  0
 19  8  1  0
  3 21  1  0
  3 22  1  0
  4 23  1  0
  4 24  1  0
  7 25  1  0
 11 26  1  0
 12 27  1  0
 12 28  1  0
 13 29  1  0
 13 30  1  0
 15 31  1  0
 16 32  1  0
 17 33  1  0
 18 34  1  0
 20 35  1  0
M  END
>  <smiles>
O=C1CCc2c(cc3c(c2O)CCc2ccccc2-3)N1

$$$$
