mol_34ee589284b6
     RDKit          3D

 56 61  0  0  0  0  0  0  0  0999 V2000
    0.7032   -4.6657    0.2325 O   0  0  0  0  0  0  0  0  0  0  0  0
    0.3792   -3.4835    0.1391 C   0  0  0  0  0  0  0  0  0  0  0  0
    1.3370   -2.5097    0.1945 N   0  0  0  0  0  0  0  0  0  0  0  0
    1.0217   -1.2425    0.1278 C   0  0  0  0  0  0  0  0  0  0  0  0
    2.0759   -0.3035    0.2181 N   0  0  0  0  0  0  0  0  0  0  0  0
    1.9363    1.0323    0.5828 C   0  0  0  0  0  0  0  0  0  0  0  0
    2.9177    1.9408    0.5892 C   0  0  0  0  0  0  0  0  0  0  0  0
    4.2523    1.5440    0.1708 C   0  0  0  0  0  0  0  0  0  0  0  0
    5.1774    2.5261    0.1120 N   0  0  0  0  0  0  0  0  0  0  0  0
    6.4234    2.1695   -0.2802 C   0  0  0  0  0  0  0  0  0  0  0  0
    6.8012    0.8734   -0.6149 C   0  0  0  0  0  0  0  0  0  0  0  0
    8.2127    0.5288   -0.9870 C   0  0  0  0  0  0  0  0  0  0  0  0
    8.8519    1.6241   -1.6267 O   0  0  0  0  0  0  0  0  0  0  0  0
    5.8203   -0.1197   -0.5216 C   0  0  0  0  0  0  0  0  0  0  0  0
    4.5170    0.2138   -0.1332 C   0  0  0  0  0  0  0  0  0  0  0  0
    3.4456   -0.8394   -0.0009 C   0  0  0  0  0  0  0  0  0  0  0  0
   -0.4084   -0.8482   -0.0481 C   0  0  0  0  0  0  0  0  0  0  0  0
   -0.6643    0.4604   -0.2409 F   0  0  0  0  0  0  0  0  0  0  0  0
   -1.3728   -1.7866   -0.0837 C   0  0  0  0  0  0  0  0  0  0  0  0
   -0.9551   -3.1123   -0.0204 N   0  0  0  0  0  0  0  0  0  0  0  0
   -1.9533   -4.1732   -0.0804 C   0  0  0  0  0  0  0  0  0  0  0  0
   -3.1304   -3.8000   -0.9618 C   0  0  0  0  0  0  0  0  0  0  0  0
   -3.7615   -2.5291   -0.4233 C   0  0  0  0  0  0  0  0  0  0  0  0
   -2.7430   -1.4868   -0.2379 N   0  0  0  0  0  0  0  0  0  0  0  0
   -3.3291   -0.2484    0.1392 C   0  0  0  0  0  0  0  0  0  0  0  0
   -3.1441    0.2746    1.4258 C   0  0  0  0  0  0  0  0  0  0  0  0
   -3.7380    1.4830    1.7999 C   0  0  0  0  0  0  0  0  0  0  0  0
   -4.5339    2.1994    0.8950 C   0  0  0  0  0  0  0  0  0  0  0  0
   -5.1372    3.4156    1.2540 C   0  0  0  0  0  0  0  0  0  0  0  0
   -5.9241    4.1183    0.3403 C   0  0  0  0  0  0  0  0  0  0  0  0
   -6.1171    3.6148   -0.9427 C   0  0  0  0  0  0  0  0  0  0  0  0
   -5.5243    2.4070   -1.3144 C   0  0  0  0  0  0  0  0  0  0  0  0
   -4.7310    1.6865   -0.4064 C   0  0  0  0  0  0  0  0  0  0  0  0
   -4.1272    0.4685   -0.7653 C   0  0  0  0  0  0  0  0  0  0  0  0
    0.9450    1.3339    0.9046 H   0  0  0  0  0  0  0  0  0  0  0  0
    2.7592    2.9703    0.8842 H   0  0  0  0  0  0  0  0  0  0  0  0
    7.1378    2.9888   -0.3173 H   0  0  0  0  0  0  0  0  0  0  0  0
    8.7780    0.2674   -0.0867 H   0  0  0  0  0  0  0  0  0  0  0  0
    8.2282   -0.3186   -1.6805 H   0  0  0  0  0  0  0  0  0  0  0  0
    9.7412    1.3231   -1.8786 H   0  0  0  0  0  0  0  0  0  0  0  0
    6.0675   -1.1543   -0.7500 H   0  0  0  0  0  0  0  0  0  0  0  0
    3.7124   -1.4882    0.8431 H   0  0  0  0  0  0  0  0  0  0  0  0
    3.4505   -1.4376   -0.9213 H   0  0  0  0  0  0  0  0  0  0  0  0
   -2.2794   -4.3750    0.9477 H   0  0  0  0  0  0  0  0  0  0  0  0
   -1.5046   -5.0972   -0.4620 H   0  0  0  0  0  0  0  0  0  0  0  0
   -3.8674   -4.6101   -0.9793 H   0  0  0  0  0  0  0  0  0  0  0  0
   -2.7893   -3.6409   -1.9925 H   0  0  0  0  0  0  0  0  0  0  0  0
   -4.2476   -2.7418    0.5383 H   0  0  0  0  0  0  0  0  0  0  0  0
   -4.5430   -2.2109   -1.1238 H   0  0  0  0  0  0  0  0  0  0  0  0
   -2.5424   -0.2637    2.1535 H   0  0  0  0  0  0  0  0  0  0  0  0
   -3.5733    1.8597    2.8067 H   0  0  0  0  0  0  0  0  0  0  0  0
   -4.9956    3.8266    2.2510 H   0  0  0  0  0  0  0  0  0  0  0  0
   -6.3836    5.0595    0.6306 H   0  0  0  0  0  0  0  0  0  0  0  0
   -6.7272    4.1625   -1.6562 H   0  0  0  0  0  0  0  0  0  0  0  0
   -5.6848    2.0317   -2.3226 H   0  0  0  0  0  0  0  0  0  0  0  0
   -4.2598    0.0823   -1.7732 H   0  0  0  0  0  0  0  0  0  0  0  0
  1  2  2  0
  2  3  1  0
  3  4  2  0
  4  5  1  0
  5  6  1  0
  6  7  2  0
  7  8  1  0
  8  9  1  0
  9 10  2  0
 10 11  1  0
 11 12  1  0
 12 13  1  0
 11 14  2  0
 14 15  1  0
 15 16  1  0
  4 17  1  0
 17 18  1  0
 17 19  2  0
 19 20  1  0
 20 21  1  0
 21 22  1  0
 22 23  1  0
 23 24  1  0
 24 25  1  0
 25 26  1  0
 26 27  2  0
 27 28  1  0
 28 29  2  0
 29 30  1  0
 30 31  2  0
 31 32  1  0
 32 33  2  0
 33 34  1  0
 20  2  1  0
 34 25  2  0
 16  5  1  0
 24 19  1  0
 33 28  1  0
 15  8  2  0
  6 35  1  0
  7 36  1  0
 10 37  1  0
 12 38  1  0
 12 39  1  0
 13 40  1  0
 14 41  1  0
 16 42  1  0
 16 43  1  0
 21 44  1  0
 21 45  1  0
 22 46  1  0
 22 47  1  0
 23 48  1  0
 23 49  1  0
 26 50  1  0
 27 51  1  0
 29 52  1  0
 30 53  1  0
 31 54  1  0
 32 55  1  0
 34 56  1  0
M  END
>  <smiles>
O=c1nc(N2C=Cc3ncc(CO)cc3C2)c(F)c2n1CCCN2c1ccc2ccccc2c1

$$$$
