mol_dc895f3f1df4
     RDKit          3D

 63 69  0  0  0  0  0  0  0  0999 V2000
    2.2330    4.6208    0.7787 C   0  0  0  0  0  0  0  0  0  0  0  0
    2.7598    3.2043    0.6114 C   0  0  0  0  0  0  0  0  0  0  0  0
    1.8206    2.1316    1.1797 C   0  0  0  0  0  0  0  0  0  0  0  0
    2.4347    0.7295    1.0506 C   0  0  0  0  0  0  0  0  0  0  0  0
    1.2632   -0.1713    0.7614 C   0  0  0  0  0  0  0  0  0  0  0  0
    1.3677   -1.6735    0.9179 C   0  0  0  0  0  0  0  0  0  0  0  0
    2.1524   -2.2247    2.0851 C   0  0  0  0  0  0  0  0  0  0  0  0
    3.6360   -2.1107    1.8639 C   0  0  0  0  0  0  0  0  0  0  0  0
    4.3518   -2.0328    2.8637 O   0  0  0  0  0  0  0  0  0  0  0  0
    4.0731   -2.1529    0.5442 N   0  0  0  0  0  0  0  0  0  0  0  0
    3.1698   -2.2589   -0.5139 C   0  0  0  0  0  0  0  0  0  0  0  0
    3.5843   -2.3369   -1.7853 C   0  0  0  0  0  0  0  0  0  0  0  0
    4.9792   -2.3052   -2.1088 C   0  0  0  0  0  0  0  0  0  0  0  0
    5.8803   -2.1833   -1.1322 C   0  0  0  0  0  0  0  0  0  0  0  0
    5.4503   -2.0837    0.2924 C   0  0  0  0  0  0  0  0  0  0  0  0
    6.3507   -1.9381    1.1157 O   0  0  0  0  0  0  0  0  0  0  0  0
    1.8117   -2.2928   -0.2851 O   0  0  0  0  0  0  0  0  0  0  0  0
    0.1947    0.5628    0.3897 C   0  0  0  0  0  0  0  0  0  0  0  0
   -1.1684    0.2030   -0.0408 C   0  0  0  0  0  0  0  0  0  0  0  0
   -1.4179   -0.9897   -0.7263 C   0  0  0  0  0  0  0  0  0  0  0  0
   -2.7018   -1.3318   -1.1762 C   0  0  0  0  0  0  0  0  0  0  0  0
   -3.7718   -0.4345   -0.9924 C   0  0  0  0  0  0  0  0  0  0  0  0
   -3.5293    0.7802   -0.2990 C   0  0  0  0  0  0  0  0  0  0  0  0
   -4.6188    1.7510   -0.0026 C   0  0  0  0  0  0  0  0  0  0  0  0
   -5.8027    1.5387   -0.2362 O   0  0  0  0  0  0  0  0  0  0  0  0
   -4.2513    2.9279    0.5889 N   0  0  0  0  0  0  0  0  0  0  0  0
   -3.0093    3.2804    1.0158 C   0  0  0  0  0  0  0  0  0  0  0  0
   -2.8470    4.3566    1.5883 O   0  0  0  0  0  0  0  0  0  0  0  0
   -1.9994    2.3722    0.7821 N   0  0  0  0  0  0  0  0  0  0  0  0
   -2.2341    1.1119    0.1512 C   0  0  0  0  0  0  0  0  0  0  0  0
   -0.6648    2.6860    1.2873 C   0  0  0  0  0  0  0  0  0  0  0  0
    0.4571    2.0414    0.4754 C   0  0  0  0  0  0  0  0  0  0  0  0
   -5.1506   -0.7983   -1.5113 C   0  0  0  0  0  0  0  0  0  0  0  0
   -5.1856   -1.9818   -2.4788 C   0  0  0  0  0  0  0  0  0  0  0  0
   -4.3122   -3.1152   -1.9732 C   0  0  0  0  0  0  0  0  0  0  0  0
   -2.8648   -2.6472   -1.9035 C   0  0  0  0  0  0  0  0  0  0  0  0
    1.9968    4.8325    1.8262 H   0  0  0  0  0  0  0  0  0  0  0  0
    2.9869    5.3430    0.4489 H   0  0  0  0  0  0  0  0  0  0  0  0
    1.3339    4.7855    0.1780 H   0  0  0  0  0  0  0  0  0  0  0  0
    2.9469    3.0174   -0.4532 H   0  0  0  0  0  0  0  0  0  0  0  0
    3.7299    3.1318    1.1186 H   0  0  0  0  0  0  0  0  0  0  0  0
    1.6771    2.3401    2.2498 H   0  0  0  0  0  0  0  0  0  0  0  0
    3.1653    0.6717    0.2366 H   0  0  0  0  0  0  0  0  0  0  0  0
    2.9336    0.4766    1.9904 H   0  0  0  0  0  0  0  0  0  0  0  0
    0.3483   -2.0444    1.0786 H   0  0  0  0  0  0  0  0  0  0  0  0
    1.9417   -3.2945    2.2087 H   0  0  0  0  0  0  0  0  0  0  0  0
    1.8806   -1.7135    3.0154 H   0  0  0  0  0  0  0  0  0  0  0  0
    2.8694   -2.4217   -2.5983 H   0  0  0  0  0  0  0  0  0  0  0  0
    5.2808   -2.3777   -3.1487 H   0  0  0  0  0  0  0  0  0  0  0  0
    6.9468   -2.1492   -1.3187 H   0  0  0  0  0  0  0  0  0  0  0  0
   -0.6017   -1.6697   -0.9567 H   0  0  0  0  0  0  0  0  0  0  0  0
   -4.9904    3.5868    0.7801 H   0  0  0  0  0  0  0  0  0  0  0  0
   -0.5263    3.7724    1.3099 H   0  0  0  0  0  0  0  0  0  0  0  0
   -0.6464    2.3494    2.3331 H   0  0  0  0  0  0  0  0  0  0  0  0
    0.4942    2.4626   -0.5379 H   0  0  0  0  0  0  0  0  0  0  0  0
   -5.7878   -1.0316   -0.6494 H   0  0  0  0  0  0  0  0  0  0  0  0
   -5.5830    0.0521   -2.0496 H   0  0  0  0  0  0  0  0  0  0  0  0
   -6.2193   -2.3235   -2.6043 H   0  0  0  0  0  0  0  0  0  0  0  0
   -4.8341   -1.6617   -3.4682 H   0  0  0  0  0  0  0  0  0  0  0  0
   -4.3894   -3.9810   -2.6402 H   0  0  0  0  0  0  0  0  0  0  0  0
   -4.6557   -3.4371   -0.9821 H   0  0  0  0  0  0  0  0  0  0  0  0
   -2.4675   -2.5272   -2.9193 H   0  0  0  0  0  0  0  0  0  0  0  0
   -2.2712   -3.4237   -1.4057 H   0  0  0  0  0  0  0  0  0  0  0  0
  1  2  1  0
  2  3  1  0
  3  4  1  0
  4  5  1  0
  5  6  1  0
  6  7  1  0
  7  8  1  0
  8  9  2  0
  8 10  1  0
 10 11  1  0
 11 12  2  0
 12 13  1  0
 13 14  2  0
 14 15  1  0
 15 16  2  0
 11 17  1  0
  5 18  2  0
 18 19  1  0
 19 20  2  0
 20 21  1  0
 21 22  2  0
 22 23  1  0
 23 24  1  0
 24 25  2  0
 24 26  1  0
 26 27  1  0
 27 28  2  0
 27 29  1  0
 29 30  1  0
 29 31  1  0
 31 32  1  0
 22 33  1  0
 33 34  1  0
 34 35  1  0
 35 36  1  0
 32  3  1  0
 17  6  1  0
 32 18  1  0
 15 10  1  0
 30 19  1  0
 36 21  1  0
 30 23  2  0
  1 37  1  0
  1 38  1  0
  1 39  1  0
  2 40  1  0
  2 41  1  0
  3 42  1  0
  4 43  1  0
  4 44  1  0
  6 45  1  0
  7 46  1  0
  7 47  1  0
 12 48  1  0
 13 49  1  0
 14 50  1  0
 20 51  1  0
 26 52  1  0
 31 53  1  0
 31 54  1  0
 32 55  1  0
 33 56  1  0
 33 57  1  0
 34 58  1  0
 34 59  1  0
 35 60  1  0
 35 61  1  0
 36 62  1  0
 36 63  1  0
M  END
>  <smiles>
CCC1CC(C2CC(=O)n3c(cccc3=O)O2)=C2c3cc4c(c5c(=O)[nH]c(=O)n(c35)CC21)CCCC4

$$$$
