mol_8fe57028efec
     RDKit          3D

 27 28  0  0  0  0  0  0  0  0999 V2000
   -0.3736   -2.8148    0.7265 O   0  0  0  0  0  0  0  0  0  0  0  0
   -0.5106   -1.6875    1.1884 C   0  0  0  0  0  0  0  0  0  0  0  0
   -1.7176   -0.8122    0.9272 C   0  0  0  0  0  0  0  0  0  0  0  0
   -2.7458   -1.5181    0.0485 C   0  0  0  0  0  0  0  0  0  0  0  0
   -3.9452   -0.6405   -0.2158 C   0  0  0  0  0  0  0  0  0  0  0  0
   -3.9664    0.2209   -1.3213 C   0  0  0  0  0  0  0  0  0  0  0  0
   -5.0715    1.0502   -1.5609 C   0  0  0  0  0  0  0  0  0  0  0  0
   -5.0341    1.9383   -2.7482 C   0  0  0  0  0  0  0  0  0  0  0  0
   -4.1162    2.0281   -3.5420 O   0  0  0  0  0  0  0  0  0  0  0  0
   -6.1505    2.6743   -2.8846 O   0  0  0  0  0  0  0  0  0  0  0  0
   -6.1656    1.0250   -0.6880 C   0  0  0  0  0  0  0  0  0  0  0  0
   -6.1513    0.1728    0.4225 C   0  0  0  0  0  0  0  0  0  0  0  0
   -7.2817    0.1124    1.3808 C   0  0  0  0  0  0  0  0  0  0  0  0
   -7.3351   -0.5855    2.3762 O   0  0  0  0  0  0  0  0  0  0  0  0
   -8.2935    0.9315    1.0466 O   0  0  0  0  0  0  0  0  0  0  0  0
   -5.0427   -0.6538    0.6557 C   0  0  0  0  0  0  0  0  0  0  0  0
    0.4268   -1.0815    1.9921 N   0  0  0  0  0  0  0  0  0  0  0  0
    1.6780   -1.7198    2.3530 C   0  0  0  0  0  0  0  0  0  0  0  0
    2.7680   -1.4865    1.3127 C   0  0  0  0  0  0  0  0  0  0  0  0
    3.2539   -0.0449    1.3034 C   0  0  0  0  0  0  0  0  0  0  0  0
    2.6902    0.8263    1.9688 O   0  0  0  0  0  0  0  0  0  0  0  0
    4.3607    0.2350    0.5075 N   0  0  0  0  0  0  0  0  0  0  0  0
    4.9104    1.5911    0.5234 C   0  0  0  0  0  0  0  0  0  0  0  0
    6.4225    1.5839    0.3341 C   0  0  0  0  0  0  0  0  0  0  0  0
    6.8371    0.9103   -0.9744 C   0  0  0  0  0  0  0  0  0  0  0  0
    5.7999   -0.0869   -1.4890 C   0  0  0  0  0  0  0  0  0  0  0  0
    5.0254   -0.7465   -0.3538 C   0  0  0  0  0  0  0  0  0  0  0  0
  1  2  2  0
  2  3  1  0
  3  4  1  0
  4  5  1  0
  5  6  2  0
  6  7  1  0
  7  8  1  0
  8  9  2  0
  8 10  1  0
  7 11  2  0
 11 12  1  0
 12 13  1  0
 13 14  2  0
 13 15  1  0
 12 16  2  0
  2 17  1  0
 17 18  1  0
 18 19  1  0
 19 20  1  0
 20 21  2  0
 20 22  1  0
 22 23  1  0
 23 24  1  0
 24 25  1  0
 25 26  1  0
 26 27  1  0
 16  5  1  0
 27 22  1  0
M  END
