mol_3a38998223c6
     RDKit          3D

 26 29  0  0  0  0  0  0  0  0999 V2000
    2.8002    1.3470   -1.4352 O   0  0  0  0  0  0  0  0  0  0  0  0
    3.1611    0.8536   -0.3665 C   0  0  0  0  0  0  0  0  0  0  0  0
    2.2762   -0.1373    0.3752 C   0  0  0  0  0  0  0  0  0  0  0  0
    0.9556   -0.4006   -0.3504 C   0  0  0  0  0  0  0  0  0  0  0  0
    0.0990   -1.4108    0.4152 C   0  0  0  0  0  0  0  0  0  0  0  0
   -1.2190   -1.6837   -0.2782 C   0  0  0  0  0  0  0  0  0  0  0  0
   -1.2896   -2.7867   -1.1338 C   0  0  0  0  0  0  0  0  0  0  0  0
   -2.4806   -3.0507   -1.7740 C   0  0  0  0  0  0  0  0  0  0  0  0
   -3.5904   -2.3021   -1.6275 N   0  0  0  0  0  0  0  0  0  0  0  0
   -3.5462   -1.2228   -0.8230 C   0  0  0  0  0  0  0  0  0  0  0  0
   -4.6988   -0.4352   -0.6844 C   0  0  0  0  0  0  0  0  0  0  0  0
   -4.7063    0.6736    0.1706 C   0  0  0  0  0  0  0  0  0  0  0  0
   -3.5545    1.0377    0.8526 C   0  0  0  0  0  0  0  0  0  0  0  0
   -2.3969    0.2787    0.7108 C   0  0  0  0  0  0  0  0  0  0  0  0
   -2.3690   -0.8655   -0.1154 C   0  0  0  0  0  0  0  0  0  0  0  0
   -5.7930    1.4759    0.3889 O   0  0  0  0  0  0  0  0  0  0  0  0
   -7.0419    0.9794   -0.0862 C   0  0  2  0  0  0  0  0  0  0  0  0
   -7.6395    0.1109    0.8675 O   0  0  0  0  0  0  0  0  0  0  0  0
   -6.9436    0.3414   -1.4625 C   0  0  0  0  0  0  0  0  0  0  0  0
   -5.9494   -0.8083   -1.4406 C   0  0  0  0  0  0  0  0  0  0  0  0
    4.3833    1.1645    0.2176 N   0  0  0  0  0  0  0  0  0  0  0  0
    4.8716    0.6567    1.5003 C   0  0  0  0  0  0  0  0  0  0  0  0
    6.2649    0.0497    1.3508 C   0  0  0  0  0  0  0  0  0  0  0  0
    7.2305    1.0321    0.6901 C   0  0  0  0  0  0  0  0  0  0  0  0
    6.6635    1.5472   -0.6317 C   0  0  0  0  0  0  0  0  0  0  0  0
    5.2634    2.1265   -0.4447 C   0  0  0  0  0  0  0  0  0  0  0  0
  1  2  2  0
  2  3  1  0
  3  4  1  0
  4  5  1  0
  5  6  1  0
  6  7  1  0
  7  8  2  0
  8  9  1  0
  9 10  2  0
 10 11  1  0
 11 12  2  0
 12 13  1  0
 13 14  2  0
 14 15  1  0
 12 16  1  0
 16 17  1  0
 17 18  1  1
 17 19  1  0
 19 20  1  0
  2 21  1  0
 21 22  1  0
 22 23  1  0
 23 24  1  0
 24 25  1  0
 25 26  1  0
 15  6  2  0
 26 21  1  0
 15 10  1  0
 20 11  1  0
M  END
