mol_dee72f5f248e
     RDKit          3D

 27 32  0  0  0  0  0  0  0  0999 V2000
    6.6305    1.2263   -0.9359 C   0  0  0  0  0  0  0  0  0  0  0  0
    5.2907    0.5539   -0.8027 C   0  0  0  0  0  0  0  0  0  0  0  0
    4.7546   -0.0248   -1.7400 O   0  0  0  0  0  0  0  0  0  0  0  0
    4.7393    0.6830    0.4528 N   0  0  0  0  0  0  0  0  0  0  0  0
    3.4476    0.1309    0.8389 C   0  0  2  0  0  0  0  0  0  0  0  0
    3.4349   -1.4135    0.8074 C   0  0  0  0  0  0  0  0  0  0  0  0
    2.0638   -2.0093    1.1602 C   0  0  0  0  0  0  0  0  0  0  0  0
    1.0008   -1.3723    0.2779 C   0  0  1  0  0  0  0  0  0  0  0  0
   -0.4486   -1.6805    0.4942 C   0  0  0  0  0  0  0  0  0  0  0  0
   -1.0329   -2.8614    0.9006 C   0  0  0  0  0  0  0  0  0  0  0  0
   -2.4179   -2.8857    1.0282 C   0  0  0  0  0  0  0  0  0  0  0  0
   -3.1959   -1.7477    0.7110 C   0  0  0  0  0  0  0  0  0  0  0  0
   -2.6152   -0.5442    0.2619 C   0  0  0  0  0  0  0  0  0  0  0  0
   -1.2284   -0.5414    0.1833 C   0  0  0  0  0  0  0  0  0  0  0  0
   -0.3265    0.6176   -0.1671 C   0  0  1  0  0  0  0  0  0  0  0  0
   -0.8822    1.9027    0.4125 C   0  0  0  0  0  0  0  0  0  0  0  0
   -1.8675    2.4416   -0.4585 O   0  0  0  0  0  0  0  0  0  0  0  0
   -3.1254    1.9000   -0.4158 C   0  0  0  0  0  0  0  0  0  0  0  0
   -4.0858    2.8463   -0.8260 C   0  0  0  0  0  0  0  0  0  0  0  0
   -5.4345    2.5249   -0.9124 C   0  0  0  0  0  0  0  0  0  0  0  0
   -5.8383    1.2394   -0.5974 C   0  0  0  0  0  0  0  0  0  0  0  0
   -4.8941    0.2914   -0.1877 C   0  0  0  0  0  0  0  0  0  0  0  0
   -3.5084    0.5806   -0.0900 C   0  0  0  0  0  0  0  0  0  0  0  0
   -5.4242   -0.9598    0.0302 O   0  0  0  0  0  0  0  0  0  0  0  0
   -4.6816   -1.7671    0.9428 C   0  0  0  0  0  0  0  0  0  0  0  0
    0.9685    0.1484    0.5216 C   0  0  2  0  0  0  0  0  0  0  0  0
    2.2787    0.7709    0.0574 C   0  0  0  0  0  0  0  0  0  0  0  0
  1  2  1  0
  2  3  2  0
  2  4  1  0
  5  4  1  6
  5  6  1  0
  6  7  1  0
  8  7  1  1
  8  9  1  0
  9 10  1  0
 10 11  2  0
 11 12  1  0
 12 13  2  0
 13 14  1  0
 14 15  1  0
 15 16  1  1
 16 17  1  0
 17 18  1  0
 18 19  2  0
 19 20  1  0
 20 21  2  0
 21 22  1  0
 22 23  2  0
 22 24  1  0
 24 25  1  0
 15 26  1  0
 26 27  1  6
 27  5  1  0
 26  8  1  0
 14  9  2  0
 23 18  1  0
 25 12  1  0
 23 13  1  0
M  END
