mol_bc34a3c073b7
     RDKit          3D

 25 27  0  0  0  0  0  0  0  0999 V2000
   -5.7475    2.0561   -0.0882 C   0  0  0  0  0  0  0  0  0  0  0  0
   -5.3311    0.5904   -0.2348 C   0  0  0  0  0  0  0  0  0  0  0  0
   -6.5050   -0.2732   -0.7023 C   0  0  0  0  0  0  0  0  0  0  0  0
   -4.1203    0.4352   -1.1465 C   0  0  0  0  0  0  0  0  0  0  0  0
   -4.2043    0.8307   -2.4982 C   0  0  0  0  0  0  0  0  0  0  0  0
   -3.1255    0.7065   -3.3638 C   0  0  0  0  0  0  0  0  0  0  0  0
   -1.9140    0.1826   -2.9189 C   0  0  0  0  0  0  0  0  0  0  0  0
   -1.8033   -0.2301   -1.5770 C   0  0  0  0  0  0  0  0  0  0  0  0
   -2.8821   -0.1024   -0.6972 C   0  0  0  0  0  0  0  0  0  0  0  0
   -2.4435   -0.6096    0.5478 C   0  0  0  0  0  0  0  0  0  0  0  0
   -1.1402   -1.0548    0.4255 C   0  0  0  0  0  0  0  0  0  0  0  0
   -0.3924   -1.8423    1.4456 C   0  0  0  0  0  0  0  0  0  0  0  0
    0.0147   -0.9945    2.5520 N   0  0  0  0  0  0  0  0  0  0  0  0
   -0.6999   -0.7433   -0.8673 N   0  0  0  0  0  0  0  0  0  0  0  0
    0.5920   -0.8936   -1.4353 C   0  0  0  0  0  0  0  0  0  0  0  0
    0.7088   -1.0948   -2.6402 O   0  0  0  0  0  0  0  0  0  0  0  0
    1.7637   -0.7455   -0.5073 C   0  0  0  0  0  0  0  0  0  0  0  0
    2.9225   -0.0728   -1.2437 C   0  0  0  0  0  0  0  0  0  0  0  0
    4.0785    0.1401   -0.3695 N   0  0  0  0  0  0  0  0  0  0  0  0
    5.0361   -0.9533   -0.2435 C   0  0  0  0  0  0  0  0  0  0  0  0
    6.3671   -0.5301    0.3529 C   0  0  0  0  0  0  0  0  0  0  0  0
    6.1159    0.2505    1.6291 C   0  0  0  0  0  0  0  0  0  0  0  0
    5.3078    1.4942    1.3100 C   0  0  0  0  0  0  0  0  0  0  0  0
    4.0612    1.2315    0.4884 C   0  0  0  0  0  0  0  0  0  0  0  0
    3.1086    2.0109    0.5417 O   0  0  0  0  0  0  0  0  0  0  0  0
  1  2  1  0
  2  3  1  0
  2  4  1  0
  4  5  1  0
  5  6  2  0
  6  7  1  0
  7  8  2  0
  8  9  1  0
  9 10  1  0
 10 11  2  0
 11 12  1  0
 12 13  1  0
 11 14  1  0
 14 15  1  0
 15 16  2  0
 15 17  1  0
 17 18  1  0
 18 19  1  0
 19 20  1  0
 20 21  1  0
 21 22  1  0
 22 23  1  0
 23 24  1  0
 24 25  2  0
  9  4  2  0
 24 19  1  0
 14  8  1  0
M  END
