mol_d23daba20092
     RDKit          3D

 27 29  0  0  0  0  0  0  0  0999 V2000
    7.7891    0.0678   -2.0798 C   0  0  0  0  0  0  0  0  0  0  0  0
    6.5948    0.3418   -1.3477 O   0  0  0  0  0  0  0  0  0  0  0  0
    6.1733   -0.6877   -0.5639 C   0  0  0  0  0  0  0  0  0  0  0  0
    6.7548   -1.7633   -0.4798 O   0  0  0  0  0  0  0  0  0  0  0  0
    5.0220   -0.3809    0.1279 N   0  0  0  0  0  0  0  0  0  0  0  0
    4.3183    0.8945   -0.0056 C   0  0  0  0  0  0  0  0  0  0  0  0
    2.8424    0.7771    0.4141 C   0  0  0  0  0  0  0  0  0  0  0  0
    2.6528    0.3005    1.8041 N   0  0  0  0  0  0  0  0  0  0  0  0
    1.3117   -0.2679    2.0059 C   0  0  0  0  0  0  0  0  0  0  0  0
    0.1980    0.7399    1.8116 C   0  0  0  0  0  0  0  0  0  0  0  0
    0.1129    1.8740    2.6364 C   0  0  0  0  0  0  0  0  0  0  0  0
   -0.8973    2.8211    2.4506 C   0  0  0  0  0  0  0  0  0  0  0  0
   -1.8441    2.6415    1.4438 C   0  0  0  0  0  0  0  0  0  0  0  0
   -1.7843    1.5029    0.6373 C   0  0  0  0  0  0  0  0  0  0  0  0
   -2.7754    1.3371   -0.4464 C   0  0  0  0  0  0  0  0  0  0  0  0
   -2.8577    2.2347   -1.2813 O   0  0  0  0  0  0  0  0  0  0  0  0
   -3.5557    0.1803   -0.4792 N   0  0  0  0  0  0  0  0  0  0  0  0
   -3.8122   -0.6694    0.6889 C   0  0  0  0  0  0  0  0  0  0  0  0
   -3.8559   -2.1468    0.3211 C   0  0  0  0  0  0  0  0  0  0  0  0
   -4.8412   -2.4012   -0.8147 C   0  0  0  0  0  0  0  0  0  0  0  0
   -4.4999   -1.5256   -2.0165 C   0  0  0  0  0  0  0  0  0  0  0  0
   -4.4201   -0.0314   -1.6571 C   0  0  1  0  0  0  0  0  0  0  0  0
   -5.8024    0.6283   -1.4713 C   0  0  0  0  0  0  0  0  0  0  0  0
   -6.6214    0.4419   -2.6217 O   0  0  0  0  0  0  0  0  0  0  0  0
   -0.7592    0.5629    0.8031 C   0  0  0  0  0  0  0  0  0  0  0  0
    3.7120   -0.6458    2.2188 C   0  0  0  0  0  0  0  0  0  0  0  0
    4.4602   -1.3425    1.0689 C   0  0  0  0  0  0  0  0  0  0  0  0
  1  2  1  0
  2  3  1  0
  3  4  2  0
  3  5  1  0
  5  6  1  0
  6  7  1  0
  7  8  1  0
  8  9  1  0
  9 10  1  0
 10 11  1  0
 11 12  2  0
 12 13  1  0
 13 14  2  0
 14 15  1  0
 15 16  2  0
 15 17  1  0
 17 18  1  0
 18 19  1  0
 19 20  1  0
 20 21  1  0
 21 22  1  0
 22 23  1  1
 23 24  1  0
 14 25  1  0
  8 26  1  0
 26 27  1  0
 27  5  1  0
 25 10  2  0
 22 17  1  0
M  END
