mol_6128c8975142
     RDKit          3D

 26 28  0  0  0  0  0  0  0  0999 V2000
    5.9700   -3.6085    1.1853 C   0  0  0  0  0  0  0  0  0  0  0  0
    4.5515   -3.2714    0.7625 C   0  0  0  0  0  0  0  0  0  0  0  0
    4.2678   -1.9413    1.1944 O   0  0  0  0  0  0  0  0  0  0  0  0
    3.0347   -1.4319    0.8973 C   0  0  0  0  0  0  0  0  0  0  0  0
    2.8268   -0.1216    1.3353 C   0  0  0  0  0  0  0  0  0  0  0  0
    1.6156    0.5385    1.0909 C   0  0  0  0  0  0  0  0  0  0  0  0
    1.4063    1.7918    1.6051 O   0  0  0  0  0  0  0  0  0  0  0  0
    2.3395    2.7917    1.1476 C   0  0  2  0  0  0  0  0  0  0  0  0
    3.1356    3.2894    2.3504 C   0  0  0  0  0  0  0  0  0  0  0  0
    1.5376    3.9540    0.5433 C   0  0  0  0  0  0  0  0  0  0  0  0
    0.8764    3.5428   -0.6507 O   0  0  0  0  0  0  0  0  0  0  0  0
    0.5826   -0.1369    0.4259 C   0  0  0  0  0  0  0  0  0  0  0  0
   -0.7253    0.4846    0.1025 C   0  0  0  0  0  0  0  0  0  0  0  0
   -0.8779    1.6964    0.2522 O   0  0  0  0  0  0  0  0  0  0  0  0
   -1.7219   -0.3460   -0.4259 N   0  0  0  0  0  0  0  0  0  0  0  0
   -3.0492    0.2534   -0.6692 C   0  0  0  0  0  0  0  0  0  0  0  0
   -3.2605    0.5769   -2.1588 C   0  0  0  0  0  0  0  0  0  0  0  0
   -4.6696    1.1033   -2.4064 C   0  0  0  0  0  0  0  0  0  0  0  0
   -5.7620    0.1428   -1.9331 C   0  0  0  0  0  0  0  0  0  0  0  0
   -5.2472   -1.0088   -1.0734 C   0  0  0  0  0  0  0  0  0  0  0  0
   -4.2151   -0.5485   -0.0476 C   0  0  0  0  0  0  0  0  0  0  0  0
   -1.4789   -1.6392   -0.8573 C   0  0  0  0  0  0  0  0  0  0  0  0
   -2.2953   -2.3556   -1.4337 O   0  0  0  0  0  0  0  0  0  0  0  0
   -0.2335   -2.1430   -0.6290 N   0  0  0  0  0  0  0  0  0  0  0  0
    0.7885   -1.4506    0.0116 C   0  0  0  0  0  0  0  0  0  0  0  0
    2.0092   -2.0989    0.2319 C   0  0  0  0  0  0  0  0  0  0  0  0
  1  2  1  0
  2  3  1  0
  3  4  1  0
  4  5  2  0
  5  6  1  0
  6  7  1  0
  7  8  1  0
  8  9  1  1
  8 10  1  0
 10 11  1  0
  6 12  2  0
 12 13  1  0
 13 14  2  0
 13 15  1  0
 15 16  1  0
 16 17  1  0
 17 18  1  0
 18 19  1  0
 19 20  1  0
 20 21  1  0
 15 22  1  0
 22 23  2  0
 22 24  1  0
 24 25  1  0
 25 26  2  0
 26  4  1  0
 25 12  1  0
 21 16  1  0
M  END
