mol_4e12b27321db
     RDKit          3D

 22 23  0  0  0  0  0  0  0  0999 V2000
    7.9377    0.2016   -0.5732 C   0  0  0  0  0  0  0  0  0  0  0  0
    6.4953    0.5886   -0.8541 C   0  0  1  0  0  0  0  0  0  0  0  0
    6.4641    1.3414   -2.0695 O   0  0  0  0  0  0  0  0  0  0  0  0
    5.5979   -0.6481   -0.9904 C   0  0  0  0  0  0  0  0  0  0  0  0
    4.2414   -0.2518   -1.2267 O   0  0  0  0  0  0  0  0  0  0  0  0
    3.4253   -0.0075   -0.1587 C   0  0  0  0  0  0  0  0  0  0  0  0
    3.7910   -0.0342    1.1874 C   0  0  0  0  0  0  0  0  0  0  0  0
    2.8482    0.2526    2.1802 C   0  0  0  0  0  0  0  0  0  0  0  0
    1.5321    0.5611    1.8348 C   0  0  0  0  0  0  0  0  0  0  0  0
    1.1544    0.5777    0.4885 C   0  0  0  0  0  0  0  0  0  0  0  0
   -0.2322    0.9062    0.0618 C   0  0  0  0  0  0  0  0  0  0  0  0
   -0.4303    1.4467   -1.0199 O   0  0  0  0  0  0  0  0  0  0  0  0
   -1.2412    0.5392    0.9279 N   0  0  0  0  0  0  0  0  0  0  0  0
   -2.6369    0.8029    0.6279 C   0  0  0  0  0  0  0  0  0  0  0  0
   -3.2479   -0.2650   -0.3009 C   0  0  1  0  0  0  0  0  0  0  0  0
   -3.2933   -1.6415    0.3880 C   0  0  0  0  0  0  0  0  0  0  0  0
   -4.6710   -1.7494    1.0416 C   0  0  0  0  0  0  0  0  0  0  0  0
   -5.4892   -0.5599    0.5421 C   0  0  0  0  0  0  0  0  0  0  0  0
   -4.7344   -0.0179   -0.6828 C   0  0  0  0  0  0  0  0  0  0  0  0
   -5.1105   -0.8294   -1.9415 C   0  0  0  0  0  0  0  0  0  0  0  0
   -5.0903    1.4499   -0.9450 C   0  0  0  0  0  0  0  0  0  0  0  0
    2.1072    0.3065   -0.5013 C   0  0  0  0  0  0  0  0  0  0  0  0
  2  1  1  6
  2  3  1  0
  2  4  1  0
  4  5  1  0
  5  6  1  0
  6  7  1  0
  7  8  2  0
  8  9  1  0
  9 10  2  0
 10 11  1  0
 11 12  2  0
 11 13  1  0
 13 14  1  0
 15 14  1  1
 15 16  1  0
 16 17  1  0
 17 18  1  0
 18 19  1  0
 19 20  1  0
 19 21  1  0
 10 22  1  0
 22  6  2  0
 19 15  1  0
M  END
