mol_f8e05606938e
     RDKit          3D

 28 31  0  0  0  0  0  0  0  0999 V2000
   -0.6475   -1.3187   -2.5658 C   0  0  0  0  0  0  0  0  0  0  0  0
   -1.1742   -0.8071   -1.2418 C   0  0  0  0  0  0  0  0  0  0  0  0
   -0.2745   -0.4043   -0.2215 C   0  0  0  0  0  0  0  0  0  0  0  0
    1.2310   -0.4275   -0.4499 C   0  0  0  0  0  0  0  0  0  0  0  0
    2.1253    0.2518    0.5992 C   0  0  0  0  0  0  0  0  0  0  0  0
    3.5330    0.2427    0.2008 N   0  0  0  0  0  0  0  0  0  0  0  0
    4.0302    1.3405   -0.6191 C   0  0  0  0  0  0  0  0  0  0  0  0
    4.8843    2.3180    0.1833 C   0  0  0  0  0  0  0  0  0  0  0  0
    5.7735    1.6791    1.2514 C   0  0  0  0  0  0  0  0  0  0  0  0
    6.5862    0.4672    0.7969 C   0  0  0  0  0  0  0  0  0  0  0  0
    5.8120   -0.7139    0.2068 C   0  0  0  0  0  0  0  0  0  0  0  0
    4.3520   -0.8008    0.6165 C   0  0  0  0  0  0  0  0  0  0  0  0
    3.9350   -1.7556    1.2701 O   0  0  0  0  0  0  0  0  0  0  0  0
   -0.8043   -0.0209    1.0170 C   0  0  0  0  0  0  0  0  0  0  0  0
   -2.1866    0.0316    1.2453 C   0  0  0  0  0  0  0  0  0  0  0  0
   -3.0941   -0.3065    0.2323 C   0  0  0  0  0  0  0  0  0  0  0  0
   -2.5806   -0.7337   -1.0058 C   0  0  0  0  0  0  0  0  0  0  0  0
   -3.5622   -1.1105   -2.0505 C   0  0  0  0  0  0  0  0  0  0  0  0
   -3.2792   -1.3735   -3.2166 O   0  0  0  0  0  0  0  0  0  0  0  0
   -4.9918   -1.1825   -1.6744 C   0  0  0  0  0  0  0  0  0  0  0  0
   -5.8506   -1.6515   -2.6563 O   0  0  0  0  0  0  0  0  0  0  0  0
   -5.4194   -0.7708   -0.4687 C   0  0  0  0  0  0  0  0  0  0  0  0
   -6.8996   -0.8300   -0.1623 C   0  0  0  0  0  0  0  0  0  0  0  0
   -4.5175   -0.2627    0.4905 N   0  0  0  0  0  0  0  0  0  0  0  0
   -4.9822    0.2910    1.7099 C   0  0  0  0  0  0  0  0  0  0  0  0
   -6.1322    0.2262    2.1469 O   0  0  0  0  0  0  0  0  0  0  0  0
   -3.9840    1.1233    2.4780 C   0  0  0  0  0  0  0  0  0  0  0  0
   -2.6828    0.3830    2.6150 C   0  0  0  0  0  0  0  0  0  0  0  0
  1  2  1  0
  2  3  1  0
  3  4  1  0
  4  5  1  0
  5  6  1  0
  6  7  1  0
  7  8  1  0
  8  9  1  0
  9 10  1  0
 10 11  1  0
 11 12  1  0
 12 13  2  0
  3 14  2  0
 14 15  1  0
 15 16  2  0
 16 17  1  0
 17 18  1  0
 18 19  2  0
 18 20  1  0
 20 21  1  0
 20 22  2  0
 22 23  1  0
 22 24  1  0
 24 25  1  0
 25 26  2  0
 25 27  1  0
 27 28  1  0
 17  2  2  0
 12  6  1  0
 28 15  1  0
 24 16  1  0
M  END
