mol_fb3d3c5a3bd1
     RDKit          3D

 26 29  0  0  0  0  0  0  0  0999 V2000
    7.2971   -0.3151   -0.3156 C   0  0  0  0  0  0  0  0  0  0  0  0
    5.8224    0.0470   -0.4689 C   0  0  1  0  0  0  0  0  0  0  0  0
    4.9607   -1.2022   -0.5860 C   0  0  0  0  0  0  0  0  0  0  0  0
    3.5139   -0.7998   -0.8233 C   0  0  0  0  0  0  0  0  0  0  0  0
    3.0074    0.2095    0.1073 N   0  0  0  0  0  0  0  0  0  0  0  0
    1.5562    0.4860    0.1420 C   0  0  1  0  0  0  0  0  0  0  0  0
    1.1491    1.4760   -0.9649 C   0  0  0  0  0  0  0  0  0  0  0  0
   -0.2546    1.2235   -1.5109 C   0  0  0  0  0  0  0  0  0  0  0  0
   -1.2762    0.8302   -0.4317 C   0  0  2  0  0  0  0  0  0  0  0  0
   -1.5903    2.0467    0.4770 C   0  0  0  0  0  0  0  0  0  0  0  0
   -2.8203    1.7691    1.3137 C   0  0  0  0  0  0  0  0  0  0  0  0
   -2.7662    1.5574    2.5193 O   0  0  0  0  0  0  0  0  0  0  0  0
   -3.9670    1.6828    0.5612 N   0  0  0  0  0  0  0  0  0  0  0  0
   -5.0815    0.8777    0.9843 C   0  0  0  0  0  0  0  0  0  0  0  0
   -5.0938   -0.3042    0.0743 C   0  0  0  0  0  0  0  0  0  0  0  0
   -4.2376   -1.3447    0.0047 C   0  0  0  0  0  0  0  0  0  0  0  0
   -4.6734   -2.2358   -1.0501 C   0  0  0  0  0  0  0  0  0  0  0  0
   -5.7765   -1.7452   -1.6306 C   0  0  0  0  0  0  0  0  0  0  0  0
   -6.1648   -0.4562   -0.9730 C   0  0  0  0  0  0  0  0  0  0  0  0
   -3.0530   -1.6708    0.8640 C   0  0  0  0  0  0  0  0  0  0  0  0
   -1.6844   -1.6679    0.1523 C   0  0  0  0  0  0  0  0  0  0  0  0
   -0.8122   -0.4076    0.3982 C   0  0  1  0  0  0  0  0  0  0  0  0
    0.6679   -0.7653    0.1236 C   0  0  0  0  0  0  0  0  0  0  0  0
    3.8465    1.1495    0.7045 C   0  0  0  0  0  0  0  0  0  0  0  0
    3.4219    2.1568    1.2732 O   0  0  0  0  0  0  0  0  0  0  0  0
    5.3328    0.8518    0.7270 C   0  0  0  0  0  0  0  0  0  0  0  0
  2  1  1  1
  2  3  1  0
  3  4  1  0
  4  5  1  0
  6  5  1  6
  6  7  1  0
  7  8  1  0
  9  8  1  6
  9 10  1  0
 10 11  1  0
 11 12  2  0
 11 13  1  0
 13 14  1  0
 14 15  1  0
 15 16  2  0
 16 17  1  0
 17 18  2  0
 18 19  1  0
 16 20  1  0
 20 21  1  0
 22 21  1  6
 22 23  1  0
  5 24  1  0
 24 25  2  0
 24 26  1  0
 26  2  1  0
 23  6  1  0
 22  9  1  0
 19 15  1  0
M  END
