mol_dd62929c6b3a
     RDKit          3D

 30 34  0  0  0  0  0  0  0  0999 V2000
   -7.0585    0.0380    0.7808 C   0  0  0  0  0  0  0  0  0  0  0  0
   -5.8221   -0.5497    0.3957 O   0  0  0  0  0  0  0  0  0  0  0  0
   -4.7233    0.2754    0.3533 C   0  0  0  0  0  0  0  0  0  0  0  0
   -4.7331    1.6388    0.6343 C   0  0  0  0  0  0  0  0  0  0  0  0
   -3.5478    2.3703    0.5552 C   0  0  0  0  0  0  0  0  0  0  0  0
   -2.3448    1.7477    0.1937 C   0  0  0  0  0  0  0  0  0  0  0  0
   -1.1276    2.5362    0.1282 C   0  0  0  0  0  0  0  0  0  0  0  0
    0.0334    1.9697   -0.2211 C   0  0  0  0  0  0  0  0  0  0  0  0
    1.3205    2.7558   -0.2765 C   0  0  0  0  0  0  0  0  0  0  0  0
    2.2360    2.3084    0.8601 C   0  0  0  0  0  0  0  0  0  0  0  0
    1.8459    2.4632    2.0245 O   0  0  0  0  0  0  0  0  0  0  0  0
    3.4764    1.7436    0.5834 N   0  0  0  0  0  0  0  0  0  0  0  0
    4.2635    1.2647    1.7192 C   0  0  0  0  0  0  0  0  0  0  0  0
    3.9076   -0.1818    2.0583 C   0  0  0  0  0  0  0  0  0  0  0  0
    4.4587   -1.2077    1.0668 C   0  0  0  0  0  0  0  0  0  0  0  0
    4.0867   -0.9989   -0.3325 N   0  0  0  0  0  0  0  0  0  0  0  0
    4.7770    0.1544   -0.9213 C   0  0  0  0  0  0  0  0  0  0  0  0
    4.0259    1.4921   -0.7569 C   0  0  0  0  0  0  0  0  0  0  0  0
    0.1125    0.5095   -0.5666 C   0  0  0  0  0  0  0  0  0  0  0  0
    1.2168    0.0978   -0.9249 O   0  0  0  0  0  0  0  0  0  0  0  0
   -1.0612   -0.2514   -0.4667 N   0  0  0  0  0  0  0  0  0  0  0  0
   -2.3086    0.3782   -0.0925 C   0  0  0  0  0  0  0  0  0  0  0  0
   -3.5111   -0.3509   -0.0092 C   0  0  0  0  0  0  0  0  0  0  0  0
   -3.4944   -1.7198   -0.2944 N   0  0  0  0  0  0  0  0  0  0  0  0
   -2.3268   -2.3945   -0.6451 C   0  0  0  0  0  0  0  0  0  0  0  0
   -2.3911   -3.7740   -0.9011 C   0  0  0  0  0  0  0  0  0  0  0  0
   -1.2483   -4.4843   -1.2470 C   0  0  0  0  0  0  0  0  0  0  0  0
   -0.0367   -3.8158   -1.3367 C   0  0  0  0  0  0  0  0  0  0  0  0
    0.0333   -2.4386   -1.0843 C   0  0  0  0  0  0  0  0  0  0  0  0
   -1.1026   -1.6867   -0.7359 C   0  0  0  0  0  0  0  0  0  0  0  0
  1  2  1  0
  2  3  1  0
  3  4  2  0
  4  5  1  0
  5  6  2  0
  6  7  1  0
  7  8  2  0
  8  9  1  0
  9 10  1  0
 10 11  2  0
 10 12  1  0
 12 13  1  0
 13 14  1  0
 14 15  1  0
 15 16  1  0
 16 17  1  0
 17 18  1  0
  8 19  1  0
 19 20  2  0
 19 21  1  0
 21 22  1  0
 22 23  2  0
 23 24  1  0
 24 25  1  0
 25 26  2  0
 26 27  1  0
 27 28  2  0
 28 29  1  0
 29 30  2  0
 23  3  1  0
 30 25  1  0
 22  6  1  0
 18 12  1  0
 30 21  1  0
M  END
