mol_30bde2a2893b
     RDKit          3D

 25 28  0  0  0  0  0  0  0  0999 V2000
    4.6937    0.3305   -1.8266 C   0  0  0  0  0  0  0  0  0  0  0  0
    4.1534    0.2276   -0.3983 C   0  0  2  0  0  0  0  0  0  0  0  0
    5.0544   -0.6502    0.4512 C   0  0  0  0  0  0  0  0  0  0  0  0
    5.7997   -1.5358    0.0642 O   0  0  0  0  0  0  0  0  0  0  0  0
    4.9609   -0.3710    1.7691 O   0  0  0  0  0  0  0  0  0  0  0  0
    2.7120   -0.2506   -0.3689 C   0  0  0  0  0  0  0  0  0  0  0  0
    2.3504   -1.4989   -0.8737 C   0  0  0  0  0  0  0  0  0  0  0  0
    1.0175   -1.9106   -0.8488 C   0  0  0  0  0  0  0  0  0  0  0  0
    0.0135   -1.0978   -0.3036 C   0  0  0  0  0  0  0  0  0  0  0  0
    0.3574    0.1608    0.2369 C   0  0  0  0  0  0  0  0  0  0  0  0
    1.7077    0.5654    0.1789 C   0  0  0  0  0  0  0  0  0  0  0  0
   -0.6953    1.0425    0.8110 C   0  0  0  0  0  0  0  0  0  0  0  0
   -1.9635    0.5807    0.8666 C   0  0  0  0  0  0  0  0  0  0  0  0
   -3.0469    1.4155    1.4718 C   0  0  0  0  0  0  0  0  0  0  0  0
   -4.2271    1.0892    1.4388 O   0  0  0  0  0  0  0  0  0  0  0  0
   -2.6749    2.5705    2.0901 N   0  0  0  0  0  0  0  0  0  0  0  0
   -1.3117    2.8768    2.4205 C   0  0  0  0  0  0  0  0  0  0  0  0
   -0.3374    2.4098    1.3475 C   0  0  0  0  0  0  0  0  0  0  0  0
   -2.3796   -0.7821    0.3978 C   0  0  1  0  0  0  0  0  0  0  0  0
   -3.5963   -0.9555   -0.5247 C   0  0  1  0  0  0  0  0  0  0  0  0
   -3.6324    0.0185   -1.7066 C   0  0  0  0  0  0  0  0  0  0  0  0
   -3.4048   -2.3998   -0.9973 C   0  0  0  0  0  0  0  0  0  0  0  0
   -1.9017   -2.5336   -1.0875 C   0  0  0  0  0  0  0  0  0  0  0  0
   -1.3501   -3.4087   -1.7360 O   0  0  0  0  0  0  0  0  0  0  0  0
   -1.3443   -1.4930   -0.3315 N   0  0  0  0  0  0  0  0  0  0  0  0
  2  1  1  6
  2  3  1  0
  3  4  2  0
  3  5  1  0
  2  6  1  0
  6  7  1  0
  7  8  2  0
  8  9  1  0
  9 10  2  0
 10 11  1  0
 10 12  1  0
 12 13  2  0
 13 14  1  0
 14 15  2  0
 14 16  1  0
 16 17  1  0
 17 18  1  0
 19 13  1  6
 19 20  1  0
 20 21  1  6
 20 22  1  0
 22 23  1  0
 23 24  2  0
 23 25  1  0
 11  6  2  0
 18 12  1  0
 25 19  1  0
 25  9  1  0
M  END
