mol_69362fe84794
     RDKit          3D

 28 32  0  0  0  0  0  0  0  0999 V2000
    5.6821    2.9583    1.7374 C   0  0  0  0  0  0  0  0  0  0  0  0
    4.8573    1.7575    1.2955 C   0  0  1  0  0  0  0  0  0  0  0  0
    3.9528    2.2183    0.2740 O   0  0  0  0  0  0  0  0  0  0  0  0
    3.3174    1.1854   -0.3691 C   0  0  0  0  0  0  0  0  0  0  0  0
    2.2200    1.3468   -1.1179 C   0  0  0  0  0  0  0  0  0  0  0  0
    1.6316    0.2132   -1.9239 C   0  0  2  0  0  0  0  0  0  0  0  0
    0.1102    0.3307   -2.1029 C   0  0  0  0  0  0  0  0  0  0  0  0
   -0.7542   -0.1991   -0.9299 C   0  0  1  0  0  0  0  0  0  0  0  0
   -2.0875   -0.7178   -1.5170 C   0  0  0  0  0  0  0  0  0  0  0  0
   -2.9371   -1.4623   -0.5856 N   0  0  0  0  0  0  0  0  0  0  0  0
   -3.5731   -0.6168    0.4460 C   0  0  0  0  0  0  0  0  0  0  0  0
   -4.6541    0.3319   -0.1222 C   0  0  0  0  0  0  0  0  0  0  0  0
   -5.0453    0.2680   -1.2899 O   0  0  0  0  0  0  0  0  0  0  0  0
   -5.1743    1.2822    0.7617 N   0  0  0  0  0  0  0  0  0  0  0  0
   -4.8402    1.3891    2.1739 C   0  0  0  0  0  0  0  0  0  0  0  0
   -6.1298    2.2583    0.2615 C   0  0  0  0  0  0  0  0  0  0  0  0
   -2.1965   -2.5907   -0.0206 C   0  0  0  0  0  0  0  0  0  0  0  0
   -0.9431   -2.1626    0.7315 C   0  0  0  0  0  0  0  0  0  0  0  0
   -0.0129   -1.2635   -0.0894 C   0  0  1  0  0  0  0  0  0  0  0  0
    0.9592   -2.0430   -0.9882 C   0  0  0  0  0  0  0  0  0  0  0  0
    2.0050   -1.1019   -1.3791 N   0  0  0  0  0  0  0  0  0  0  0  0
    3.2527   -1.2536   -0.7758 C   0  0  0  0  0  0  0  0  0  0  0  0
    3.7846   -2.4804   -0.6227 N   0  0  0  0  0  0  0  0  0  0  0  0
    4.9853   -2.5513   -0.0194 C   0  0  0  0  0  0  0  0  0  0  0  0
    5.6891   -1.5282    0.4846 N   0  0  0  0  0  0  0  0  0  0  0  0
    5.1053   -0.3298    0.3485 C   0  0  0  0  0  0  0  0  0  0  0  0
    3.9043   -0.1347   -0.2872 C   0  0  0  0  0  0  0  0  0  0  0  0
    5.7799    0.7308    0.9006 O   0  0  0  0  0  0  0  0  0  0  0  0
  2  1  1  6
  2  3  1  0
  3  4  1  0
  4  5  2  0
  5  6  1  0
  6  7  1  1
  8  7  1  6
  8  9  1  0
  9 10  1  0
 10 11  1  0
 11 12  1  0
 12 13  2  0
 12 14  1  0
 14 15  1  0
 14 16  1  0
 10 17  1  0
 17 18  1  0
 19 18  1  6
 19 20  1  0
 20 21  1  0
 21 22  1  0
 22 23  2  0
 23 24  1  0
 24 25  2  0
 25 26  1  0
 26 27  2  0
 26 28  1  0
 28  2  1  0
 27  4  1  0
 21  6  1  0
 27 22  1  0
 19  8  1  0
M  END
