mol_30de2561be69
     RDKit          3D

 29 32  0  0  0  0  0  0  0  0999 V2000
   -3.8045   -3.4361   -0.2910 C   0  0  0  0  0  0  0  0  0  0  0  0
   -4.1528   -2.1049    0.0878 O   0  0  0  0  0  0  0  0  0  0  0  0
   -3.7126   -1.1573   -0.7768 C   0  0  0  0  0  0  0  0  0  0  0  0
   -3.0597   -1.3359   -1.7903 O   0  0  0  0  0  0  0  0  0  0  0  0
   -4.1186    0.1684   -0.2591 C   0  0  0  0  0  0  0  0  0  0  0  0
   -5.4907    0.5041   -0.2413 C   0  0  0  0  0  0  0  0  0  0  0  0
   -6.5559   -0.4361   -0.7341 C   0  0  0  0  0  0  0  0  0  0  0  0
   -5.8664    1.7446    0.2787 C   0  0  0  0  0  0  0  0  0  0  0  0
   -4.9019    2.6387    0.7431 C   0  0  0  0  0  0  0  0  0  0  0  0
   -3.5365    2.3237    0.7046 C   0  0  0  0  0  0  0  0  0  0  0  0
   -2.6001    3.2609    1.1785 C   0  0  0  0  0  0  0  0  0  0  0  0
   -1.2327    2.9606    1.1431 C   0  0  0  0  0  0  0  0  0  0  0  0
   -0.1640    3.7201    1.5444 N   0  0  0  0  0  0  0  0  0  0  0  0
    0.8933    2.9847    1.2895 C   0  0  0  0  0  0  0  0  0  0  0  0
    0.5543    1.7764    0.7403 N   0  0  0  0  0  0  0  0  0  0  0  0
    1.4902    0.7401    0.3251 C   0  0  0  0  0  0  0  0  0  0  0  0
    2.3792    1.2004   -0.8346 C   0  0  0  0  0  0  0  0  0  0  0  0
    3.3677    0.1040   -1.2292 C   0  0  0  0  0  0  0  0  0  0  0  0
    4.1645   -0.3117   -0.0692 N   0  0  0  0  0  0  0  0  0  0  0  0
    5.2923   -1.2046   -0.4564 C   0  0  2  0  0  0  0  0  0  0  0  0
    4.8964   -2.6517   -0.7613 C   0  0  0  0  0  0  0  0  0  0  0  0
    6.4058   -1.1784    0.6081 C   0  0  0  0  0  0  0  0  0  0  0  0
    6.3876   -0.6729    1.7191 O   0  0  0  0  0  0  0  0  0  0  0  0
    7.5311   -1.8012    0.1868 O   0  0  0  0  0  0  0  0  0  0  0  0
    3.3176   -0.8484    1.0039 C   0  0  0  0  0  0  0  0  0  0  0  0
    2.3378    0.2189    1.4901 C   0  0  0  0  0  0  0  0  0  0  0  0
   -0.8180    1.7344    0.6396 C   0  0  0  0  0  0  0  0  0  0  0  0
   -1.7253    0.7764    0.1659 C   0  0  0  0  0  0  0  0  0  0  0  0
   -3.1150    1.0704    0.1937 C   0  0  0  0  0  0  0  0  0  0  0  0
  1  2  1  0
  2  3  1  0
  3  4  2  0
  3  5  1  0
  5  6  2  0
  6  7  1  0
  6  8  1  0
  8  9  2  0
  9 10  1  0
 10 11  2  0
 11 12  1  0
 12 13  1  0
 13 14  2  0
 14 15  1  0
 15 16  1  0
 16 17  1  0
 17 18  1  0
 18 19  1  0
 19 20  1  0
 20 21  1  1
 20 22  1  0
 22 23  2  0
 22 24  1  0
 19 25  1  0
 25 26  1  0
 15 27  1  0
 27 28  1  0
 28 29  2  0
 29  5  1  0
 29 10  1  0
 27 12  2  0
 26 16  1  0
M  END
