mol_ebe1c876120e
     RDKit          3D

 25 28  0  0  0  0  0  0  0  0999 V2000
   -2.4989    2.1333   -2.5410 C   0  0  0  0  0  0  0  0  0  0  0  0
   -1.9258    1.4006   -1.4236 N   0  0  0  0  0  0  0  0  0  0  0  0
   -0.5485    1.0919   -1.4289 C   0  0  0  0  0  0  0  0  0  0  0  0
    0.2079    1.4594   -2.3243 O   0  0  0  0  0  0  0  0  0  0  0  0
   -0.0204    0.2800   -0.2597 C   0  0  0  0  0  0  0  0  0  0  0  0
    1.2041   -0.2778   -0.4158 N   0  0  0  0  0  0  0  0  0  0  0  0
    1.7202   -1.0000    0.5942 C   0  0  0  0  0  0  0  0  0  0  0  0
    2.9841   -1.5898    0.4637 C   0  0  0  0  0  0  0  0  0  0  0  0
    3.7814   -1.4212   -0.8146 C   0  0  0  0  0  0  0  0  0  0  0  0
    4.4563   -0.0541   -0.8948 C   0  0  0  0  0  0  0  0  0  0  0  0
    5.2703    0.0677   -2.1507 C   0  0  0  0  0  0  0  0  0  0  0  0
    5.5468   -0.8141   -2.9461 O   0  0  0  0  0  0  0  0  0  0  0  0
    5.7421    1.3182   -2.3284 O   0  0  0  0  0  0  0  0  0  0  0  0
    3.5405   -2.3329    1.5201 C   0  0  0  0  0  0  0  0  0  0  0  0
    2.8406   -2.5024    2.7091 C   0  0  0  0  0  0  0  0  0  0  0  0
    1.5815   -1.9292    2.8535 C   0  0  0  0  0  0  0  0  0  0  0  0
    1.0167   -1.1811    1.8084 C   0  0  0  0  0  0  0  0  0  0  0  0
   -0.2495   -0.5949    1.9475 C   0  0  0  0  0  0  0  0  0  0  0  0
   -0.7895    0.1399    0.8974 C   0  0  0  0  0  0  0  0  0  0  0  0
   -2.1015    0.8505    0.9493 C   0  0  2  0  0  0  0  0  0  0  0  0
   -3.1905    0.4552    1.9406 C   0  0  0  0  0  0  0  0  0  0  0  0
   -4.4720    1.0468    1.3332 C   0  0  0  0  0  0  0  0  0  0  0  0
   -4.1016    1.5328   -0.0797 C   0  0  0  0  0  0  0  0  0  0  0  0
   -2.8047    0.7777   -0.4250 C   0  0  1  0  0  0  0  0  0  0  0  0
   -3.1584   -0.6576   -0.8895 C   0  0  0  0  0  0  0  0  0  0  0  0
  1  2  1  0
  2  3  1  0
  3  4  2  0
  3  5  1  0
  5  6  2  0
  6  7  1  0
  7  8  2  0
  8  9  1  0
  9 10  1  0
 10 11  1  0
 11 12  2  0
 11 13  1  0
  8 14  1  0
 14 15  2  0
 15 16  1  0
 16 17  2  0
 17 18  1  0
 18 19  2  0
 19 20  1  0
 20 21  1  1
 21 22  1  0
 22 23  1  0
 23 24  1  0
 24 25  1  6
 24  2  1  0
 19  5  1  0
 24 20  1  0
 17  7  1  0
M  END
