mol_6c3a273b0047
     RDKit          3D

 28 30  0  0  0  0  0  0  0  0999 V2000
   -4.2151   -3.2014   -1.4580 C   0  0  0  0  0  0  0  0  0  0  0  0
   -4.0226   -2.9556    0.0332 C   0  0  0  0  0  0  0  0  0  0  0  0
   -4.5165   -1.5983    0.4654 C   0  0  0  0  0  0  0  0  0  0  0  0
   -5.7371   -1.4362    0.9982 C   0  0  0  0  0  0  0  0  0  0  0  0
   -6.2911   -0.1152    1.4464 C   0  0  2  0  0  0  0  0  0  0  0  0
   -7.4415    0.3268    0.5465 C   0  0  0  0  0  0  0  0  0  0  0  0
   -5.3511    0.9630    1.5275 O   0  0  0  0  0  0  0  0  0  0  0  0
   -4.1570    0.8237    0.8758 C   0  0  0  0  0  0  0  0  0  0  0  0
   -3.3939    1.9970    0.7949 C   0  0  0  0  0  0  0  0  0  0  0  0
   -2.1380    1.9979    0.1791 C   0  0  0  0  0  0  0  0  0  0  0  0
   -1.3479    3.2695    0.0741 C   0  0  0  0  0  0  0  0  0  0  0  0
   -1.6666    0.7883   -0.3480 C   0  0  0  0  0  0  0  0  0  0  0  0
   -0.3536    0.7176   -1.0233 C   0  0  0  0  0  0  0  0  0  0  0  0
   -0.2513    1.2384   -2.1299 O   0  0  0  0  0  0  0  0  0  0  0  0
    0.6906    0.0591   -0.3760 N   0  0  0  0  0  0  0  0  0  0  0  0
    0.6435   -0.4312    0.9954 C   0  0  0  0  0  0  0  0  0  0  0  0
    1.9497   -0.1164   -1.1029 C   0  0  0  0  0  0  0  0  0  0  0  0
    2.8587    1.0999   -0.9783 C   0  0  0  0  0  0  0  0  0  0  0  0
    4.2248    0.7631   -1.5367 C   0  0  0  0  0  0  0  0  0  0  0  0
    4.4262    0.8272   -2.7503 O   0  0  0  0  0  0  0  0  0  0  0  0
    5.2099    0.3608   -0.6498 N   0  0  0  0  0  0  0  0  0  0  0  0
    6.5541    0.0775   -1.1637 C   0  0  0  0  0  0  0  0  0  0  0  0
    7.6408    0.4670   -0.1473 C   0  0  0  0  0  0  0  0  0  0  0  0
    7.5135   -0.1760    1.1738 N   0  0  0  0  0  0  0  0  0  0  0  0
    6.1459   -0.6402    1.4438 C   0  0  0  0  0  0  0  0  0  0  0  0
    5.0333    0.2040    0.7966 C   0  0  0  0  0  0  0  0  0  0  0  0
   -2.4327   -0.3866   -0.2757 C   0  0  0  0  0  0  0  0  0  0  0  0
   -3.6893   -0.3859    0.3434 C   0  0  0  0  0  0  0  0  0  0  0  0
  1  2  1  0
  2  3  1  0
  3  4  2  0
  4  5  1  0
  5  6  1  6
  5  7  1  0
  7  8  1  0
  8  9  1  0
  9 10  2  0
 10 11  1  0
 10 12  1  0
 12 13  1  0
 13 14  2  0
 13 15  1  0
 15 16  1  0
 15 17  1  0
 17 18  1  0
 18 19  1  0
 19 20  2  0
 19 21  1  0
 21 22  1  0
 22 23  1  0
 23 24  1  0
 24 25  1  0
 25 26  1  0
 12 27  2  0
 27 28  1  0
 28  3  1  0
 28  8  2  0
 26 21  1  0
M  END
