mol_ed6726ba5537
     RDKit          3D

 30 34  0  0  0  0  0  0  0  0999 V2000
   -5.3638    1.6015    0.2727 C   0  0  0  0  0  0  0  0  0  0  0  0
   -4.9319    0.1317    0.1632 C   0  0  0  0  0  0  0  0  0  0  0  0
   -4.5951   -0.4722    1.5365 C   0  0  0  0  0  0  0  0  0  0  0  0
   -6.1657   -0.6559   -0.3592 C   0  0  0  0  0  0  0  0  0  0  0  0
   -3.8002   -0.0513   -0.9004 C   0  0  0  0  0  0  0  0  0  0  0  0
   -4.1379   -0.2700   -2.0727 O   0  0  0  0  0  0  0  0  0  0  0  0
   -2.4415    0.0459   -0.5299 N   0  0  0  0  0  0  0  0  0  0  0  0
   -2.0051    0.9280    0.4591 C   0  0  0  0  0  0  0  0  0  0  0  0
   -0.7188    1.1092    0.8072 C   0  0  0  0  0  0  0  0  0  0  0  0
   -0.2421    2.0658    1.8629 C   0  0  0  0  0  0  0  0  0  0  0  0
   -1.3382    2.7385    2.4808 O   0  0  0  0  0  0  0  0  0  0  0  0
    0.3084    0.3385    0.0954 C   0  0  0  0  0  0  0  0  0  0  0  0
    1.5910    0.5380    0.4662 N   0  0  0  0  0  0  0  0  0  0  0  0
    2.5480   -0.1616   -0.1814 C   0  0  0  0  0  0  0  0  0  0  0  0
    2.2509   -1.0664   -1.2045 C   0  0  0  0  0  0  0  0  0  0  0  0
    0.9216   -1.2816   -1.5607 C   0  0  0  0  0  0  0  0  0  0  0  0
    0.6077   -2.1811   -2.5105 N   0  0  0  0  0  0  0  0  0  0  0  0
   -0.6930   -2.3675   -2.8141 C   0  0  0  0  0  0  0  0  0  0  0  0
   -1.7337   -1.6849   -2.2137 C   0  0  0  0  0  0  0  0  0  0  0  0
   -1.4350   -0.7290   -1.2451 C   0  0  0  0  0  0  0  0  0  0  0  0
   -0.0783   -0.5480   -0.9033 C   0  0  0  0  0  0  0  0  0  0  0  0
    3.3753   -1.8539   -1.8341 C   0  0  0  0  0  0  0  0  0  0  0  0
    4.6819   -1.0565   -1.8921 C   0  0  0  0  0  0  0  0  0  0  0  0
    5.0029   -0.3936   -0.5736 C   0  0  0  0  0  0  0  0  0  0  0  0
    6.3373   -0.1721   -0.2008 C   0  0  0  0  0  0  0  0  0  0  0  0
    6.6333    0.4875    0.9910 C   0  0  0  0  0  0  0  0  0  0  0  0
    5.5944    0.9344    1.7983 C   0  0  0  0  0  0  0  0  0  0  0  0
    5.8389    1.5863    2.9716 O   0  0  0  0  0  0  0  0  0  0  0  0
    4.2663    0.7340    1.4334 C   0  0  0  0  0  0  0  0  0  0  0  0
    3.9434    0.0682    0.2398 C   0  0  0  0  0  0  0  0  0  0  0  0
  1  2  1  0
  2  3  1  0
  2  4  1  0
  2  5  1  0
  5  6  2  0
  5  7  1  0
  7  8  1  0
  8  9  2  0
  9 10  1  0
 10 11  1  0
  9 12  1  0
 12 13  2  0
 13 14  1  0
 14 15  2  0
 15 16  1  0
 16 17  2  0
 17 18  1  0
 18 19  2  0
 19 20  1  0
 20 21  2  0
 15 22  1  0
 22 23  1  0
 23 24  1  0
 24 25  2  0
 25 26  1  0
 26 27  2  0
 27 28  1  0
 27 29  1  0
 29 30  2  0
 20  7  1  0
 30 24  1  0
 21 12  1  0
 30 14  1  0
 21 16  1  0
M  END
