mol_ee43e6e247fe
     RDKit          3D

 25 27  0  0  0  0  0  0  0  0999 V2000
   -5.8836   -1.6639   -1.1791 C   0  0  0  0  0  0  0  0  0  0  0  0
   -4.4386   -2.1450   -1.1307 C   0  0  0  0  0  0  0  0  0  0  0  0
   -3.4237   -0.9956   -0.9476 C   0  0  2  0  0  0  0  0  0  0  0  0
   -1.9794   -1.5338   -1.0921 C   0  0  0  0  0  0  0  0  0  0  0  0
   -0.9091   -0.4582   -1.4030 C   0  0  2  0  0  0  0  0  0  0  0  0
    0.4039   -1.1190   -1.8777 C   0  0  0  0  0  0  0  0  0  0  0  0
    1.3821   -1.4178   -0.7424 C   0  0  0  0  0  0  0  0  0  0  0  0
    1.7034   -0.1829    0.1262 C   0  0  1  0  0  0  0  0  0  0  0  0
    3.1267    0.2099    0.1049 N   0  0  0  0  0  0  0  0  0  0  0  0
    3.7358    0.5044    1.3999 C   0  0  0  0  0  0  0  0  0  0  0  0
    5.2527    0.5722    1.3812 C   0  0  0  0  0  0  0  0  0  0  0  0
    5.6980    1.4913    0.2527 C   0  0  1  0  0  0  0  0  0  0  0  0
    7.2146    1.6625    0.2490 C   0  0  0  0  0  0  0  0  0  0  0  0
    5.2139    0.8990   -1.0637 C   0  0  0  0  0  0  0  0  0  0  0  0
    3.7346    0.5621   -1.0955 C   0  0  0  0  0  0  0  0  0  0  0  0
    3.1534    0.5288   -2.1803 O   0  0  0  0  0  0  0  0  0  0  0  0
    0.7654    1.0027   -0.1475 C   0  0  0  0  0  0  0  0  0  0  0  0
   -0.6775    0.5145   -0.2327 C   0  0  0  0  0  0  0  0  0  0  0  0
   -3.6491   -0.2910    0.3166 N   0  0  0  0  0  0  0  0  0  0  0  0
   -3.5908   -0.9169    1.6197 C   0  0  0  0  0  0  0  0  0  0  0  0
   -3.5378    0.2573    2.5787 C   0  0  0  0  0  0  0  0  0  0  0  0
   -4.3672    1.3255    1.8785 C   0  0  1  0  0  0  0  0  0  0  0  0
   -3.9751    2.6166    2.2905 O   0  0  0  0  0  0  0  0  0  0  0  0
   -4.1175    1.0161    0.4010 C   0  0  0  0  0  0  0  0  0  0  0  0
   -4.3163    1.7969   -0.5166 O   0  0  0  0  0  0  0  0  0  0  0  0
  1  2  1  0
  3  2  1  1
  3  4  1  0
  5  4  1  1
  5  6  1  0
  6  7  1  0
  7  8  1  0
  8  9  1  6
  9 10  1  0
 10 11  1  0
 11 12  1  0
 12 13  1  6
 12 14  1  0
 14 15  1  0
 15 16  2  0
  8 17  1  0
 17 18  1  0
  3 19  1  0
 19 20  1  0
 20 21  1  0
 21 22  1  0
 22 23  1  1
 22 24  1  0
 24 25  2  0
 18  5  1  0
 24 19  1  0
 15  9  1  0
M  END
