mol_19a8c7259e6b
     RDKit          3D

 25 27  0  0  0  0  0  0  0  0999 V2000
   -6.9590    1.7387    0.5794 C   0  0  0  0  0  0  0  0  0  0  0  0
   -6.5067    0.9592   -0.5183 O   0  0  0  0  0  0  0  0  0  0  0  0
   -5.1925    0.5789   -0.5285 C   0  0  0  0  0  0  0  0  0  0  0  0
   -4.2407    0.9365    0.4283 C   0  0  0  0  0  0  0  0  0  0  0  0
   -2.8914    0.4898    0.3439 C   0  0  0  0  0  0  0  0  0  0  0  0
   -1.8608    0.7933    1.2671 C   0  0  0  0  0  0  0  0  0  0  0  0
   -2.0651    1.5721    2.5073 C   0  0  0  0  0  0  0  0  0  0  0  0
   -1.2913    2.3873    2.9724 O   0  0  0  0  0  0  0  0  0  0  0  0
   -3.1712    1.2021    3.1745 O   0  0  0  0  0  0  0  0  0  0  0  0
   -0.5506    0.3608    1.0470 C   0  0  0  0  0  0  0  0  0  0  0  0
   -0.2853   -0.4015   -0.0759 C   0  0  0  0  0  0  0  0  0  0  0  0
    1.0956   -0.9438   -0.3486 C   0  0  0  0  0  0  0  0  0  0  0  0
    2.1744    0.1188   -0.5026 C   0  0  0  0  0  0  0  0  0  0  0  0
    1.9050    1.3180   -0.5830 O   0  0  0  0  0  0  0  0  0  0  0  0
    3.4944   -0.3343   -0.5348 N   0  0  0  0  0  0  0  0  0  0  0  0
    3.8837   -1.7465   -0.5294 C   0  0  0  0  0  0  0  0  0  0  0  0
    5.2556   -1.9674   -1.1560 C   0  0  0  0  0  0  0  0  0  0  0  0
    6.3436   -1.1483   -0.4628 C   0  0  0  0  0  0  0  0  0  0  0  0
    5.8234    0.1652    0.1218 C   0  0  0  0  0  0  0  0  0  0  0  0
    4.5705    0.6565   -0.5930 C   0  0  0  0  0  0  0  0  0  0  0  0
   -1.2618   -0.7545   -0.9449 N   0  0  0  0  0  0  0  0  0  0  0  0
   -2.5142   -0.3083   -0.7536 C   0  0  0  0  0  0  0  0  0  0  0  0
   -3.4659   -0.6575   -1.6980 C   0  0  0  0  0  0  0  0  0  0  0  0
   -4.7868   -0.2254   -1.5922 C   0  0  0  0  0  0  0  0  0  0  0  0
   -5.7008   -0.5893   -2.5453 O   0  0  0  0  0  0  0  0  0  0  0  0
  1  2  1  0
  2  3  1  0
  3  4  2  0
  4  5  1  0
  5  6  2  0
  6  7  1  0
  7  8  2  0
  7  9  1  0
  6 10  1  0
 10 11  2  0
 11 12  1  0
 12 13  1  0
 13 14  2  0
 13 15  1  0
 15 16  1  0
 16 17  1  0
 17 18  1  0
 18 19  1  0
 19 20  1  0
 11 21  1  0
 21 22  2  0
 22 23  1  0
 23 24  2  0
 24 25  1  0
 24  3  1  0
 22  5  1  0
 20 15  1  0
M  END
