mol_7ab809496c6a
     RDKit          3D

 21 22  0  0  0  0  0  0  0  0999 V2000
    6.1842   -2.3732    1.2733 C   0  0  0  0  0  0  0  0  0  0  0  0
    5.2208   -1.8102    2.1577 O   0  0  0  0  0  0  0  0  0  0  0  0
    4.2331   -1.0684    1.5291 C   0  0  0  0  0  0  0  0  0  0  0  0
    2.9661   -1.2244    1.9313 C   0  0  0  0  0  0  0  0  0  0  0  0
    1.8115   -0.4283    1.4056 C   0  0  0  0  0  0  0  0  0  0  0  0
    2.1554    0.5837    0.3334 C   0  0  0  0  0  0  0  0  0  0  0  0
    3.4923    0.7733   -0.0760 C   0  0  0  0  0  0  0  0  0  0  0  0
    3.7925    1.7320   -1.0606 C   0  0  0  0  0  0  0  0  0  0  0  0
    2.7862    2.4975   -1.6445 C   0  0  0  0  0  0  0  0  0  0  0  0
    1.4630    2.3079   -1.2589 C   0  0  0  0  0  0  0  0  0  0  0  0
    1.1435    1.3523   -0.2820 C   0  0  0  0  0  0  0  0  0  0  0  0
   -0.2885    1.1774    0.0830 C   0  0  0  0  0  0  0  0  0  0  0  0
   -0.6458    1.1732    1.2531 O   0  0  0  0  0  0  0  0  0  0  0  0
   -1.1424    1.0017   -0.9858 N   0  0  0  0  0  0  0  0  0  0  0  0
   -2.5664    0.8035   -0.8008 C   0  0  0  0  0  0  0  0  0  0  0  0
   -2.8886   -0.6714   -0.5467 C   0  0  0  0  0  0  0  0  0  0  0  0
   -4.3896   -1.0057   -0.3455 C   0  0  0  0  0  0  0  0  0  0  0  0
   -5.2143   -0.6294   -1.5872 C   0  0  0  0  0  0  0  0  0  0  0  0
   -4.9601   -0.2765    0.8821 C   0  0  0  0  0  0  0  0  0  0  0  0
   -4.5172   -2.5243   -0.1150 C   0  0  0  0  0  0  0  0  0  0  0  0
    4.6321   -0.0420    0.5010 C   0  0  0  0  0  0  0  0  0  0  0  0
  1  2  1  0
  2  3  1  0
  3  4  2  0
  4  5  1  0
  5  6  1  0
  6  7  2  0
  7  8  1  0
  8  9  2  0
  9 10  1  0
 10 11  2  0
 11 12  1  0
 12 13  2  0
 12 14  1  0
 14 15  1  0
 15 16  1  0
 16 17  1  0
 17 18  1  0
 17 19  1  0
 17 20  1  0
  7 21  1  0
 21  3  1  0
 11  6  1  0
M  END
