mol_6f95820763d1
     RDKit          3D

 30 35  0  0  0  0  0  0  0  0999 V2000
    5.9655    0.9877    1.5864 C   0  0  0  0  0  0  0  0  0  0  0  0
    5.2066    0.4741    0.4606 N   0  0  0  0  0  0  0  0  0  0  0  0
    5.7528   -0.6922   -0.2282 C   0  0  0  0  0  0  0  0  0  0  0  0
    4.9865   -1.1169   -1.4869 C   0  0  0  0  0  0  0  0  0  0  0  0
    3.5312   -0.9831   -1.3715 N   0  0  0  0  0  0  0  0  0  0  0  0
    2.9523   -1.9116   -0.3961 C   0  0  0  0  0  0  0  0  0  0  0  0
    1.4992   -1.6526   -0.1275 C   0  0  0  0  0  0  0  0  0  0  0  0
    0.8767   -0.4977   -0.4357 C   0  0  0  0  0  0  0  0  0  0  0  0
   -0.5679   -0.2655   -0.2048 C   0  0  0  0  0  0  0  0  0  0  0  0
   -1.4915   -1.2942   -0.1515 C   0  0  0  0  0  0  0  0  0  0  0  0
   -2.8311   -0.9718    0.0653 C   0  0  0  0  0  0  0  0  0  0  0  0
   -3.2426    0.3720    0.2183 C   0  0  0  0  0  0  0  0  0  0  0  0
   -4.5942    0.7700    0.4415 C   0  0  0  0  0  0  0  0  0  0  0  0
   -4.9185    2.1208    0.5798 C   0  0  0  0  0  0  0  0  0  0  0  0
   -3.9033    3.0624    0.4951 C   0  0  0  0  0  0  0  0  0  0  0  0
   -4.1588    4.3962    0.6213 O   0  0  0  0  0  0  0  0  0  0  0  0
   -2.5838    2.6769    0.2765 C   0  0  0  0  0  0  0  0  0  0  0  0
   -2.2337    1.3428    0.1359 C   0  0  0  0  0  0  0  0  0  0  0  0
   -0.9447    1.0279   -0.0747 N   0  0  0  0  0  0  0  0  0  0  0  0
   -5.5849   -0.2984    0.5110 C   0  0  0  0  0  0  0  0  0  0  0  0
   -6.9395   -0.1578    0.7175 C   0  0  0  0  0  0  0  0  0  0  0  0
   -7.7481   -1.6716    0.7286 S   0  0  0  0  0  0  0  0  0  0  0  0
   -6.2885   -2.5215    0.4573 C   0  0  0  0  0  0  0  0  0  0  0  0
   -5.2076   -1.6715    0.3601 C   0  0  0  0  0  0  0  0  0  0  0  0
   -3.8298   -2.0804    0.1322 C   0  0  0  0  0  0  0  0  0  0  0  0
   -3.4899   -3.2506    0.0038 O   0  0  0  0  0  0  0  0  0  0  0  0
    1.6718    0.6507   -1.0282 C   0  0  0  0  0  0  0  0  0  0  0  0
    3.1992    0.4248   -1.0396 C   0  0  1  0  0  0  0  0  0  0  0  0
    3.9008    0.9241    0.2515 C   0  0  0  0  0  0  0  0  0  0  0  0
    3.3788    1.7518    0.9995 O   0  0  0  0  0  0  0  0  0  0  0  0
  1  2  1  0
  2  3  1  0
  3  4  1  0
  4  5  1  0
  5  6  1  0
  6  7  1  0
  7  8  2  0
  8  9  1  0
  9 10  2  0
 10 11  1  0
 11 12  2  0
 12 13  1  0
 13 14  2  0
 14 15  1  0
 15 16  1  0
 15 17  2  0
 17 18  1  0
 18 19  2  0
 13 20  1  0
 20 21  2  0
 21 22  1  0
 22 23  1  0
 23 24  2  0
 24 25  1  0
 25 26  2  0
  8 27  1  0
 28 27  1  1
 28 29  1  0
 29 30  2  0
 29  2  1  0
 28  5  1  0
 19  9  1  0
 24 20  1  0
 25 11  1  0
 18 12  1  0
M  END
