mol_ea12e65d235b
     RDKit          3D

 27 30  0  0  0  0  0  0  0  0999 V2000
   -4.4698   -1.9316    0.2285 C   0  0  0  0  0  0  0  0  0  0  0  0
   -4.1683   -1.1689   -1.0560 C   0  0  0  0  0  0  0  0  0  0  0  0
   -3.8106    0.2432   -0.7943 N   0  0  0  0  0  0  0  0  0  0  0  0
   -4.7911    1.2521   -0.9465 C   0  0  0  0  0  0  0  0  0  0  0  0
   -4.5673    2.4689   -0.9494 O   0  0  0  0  0  0  0  0  0  0  0  0
   -6.2517    0.8158   -1.1549 C   0  0  0  0  0  0  0  0  0  0  0  0
   -7.1556    1.9047   -0.9963 O   0  0  0  0  0  0  0  0  0  0  0  0
   -2.4731    0.5392   -0.4117 C   0  0  0  0  0  0  0  0  0  0  0  0
   -2.1236    1.6884    0.2046 C   0  0  0  0  0  0  0  0  0  0  0  0
   -0.7326    2.0757    0.6175 C   0  0  0  0  0  0  0  0  0  0  0  0
    0.2839    1.0832    0.2954 N   0  0  0  0  0  0  0  0  0  0  0  0
    0.0196   -0.1162   -0.3163 C   0  0  0  0  0  0  0  0  0  0  0  0
    1.2194   -0.7894   -0.4546 C   0  0  0  0  0  0  0  0  0  0  0  0
    2.2388    0.0481    0.0914 C   0  0  0  0  0  0  0  0  0  0  0  0
    3.6373   -0.1331    0.2152 C   0  0  0  0  0  0  0  0  0  0  0  0
    4.3839    0.9012    0.8254 C   0  0  0  0  0  0  0  0  0  0  0  0
    5.7379    0.6901    0.8993 O   0  0  0  0  0  0  0  0  0  0  0  0
    6.5167    1.6343    1.6222 C   0  0  0  0  0  0  0  0  0  0  0  0
    3.7457    2.0541    1.2947 C   0  0  0  0  0  0  0  0  0  0  0  0
    2.3623    2.2285    1.1737 C   0  0  0  0  0  0  0  0  0  0  0  0
    1.6298    1.2063    0.5637 C   0  0  0  0  0  0  0  0  0  0  0  0
    4.2953   -1.3713   -0.3492 C   0  0  0  0  0  0  0  0  0  0  0  0
    3.7144   -2.6755    0.1655 C   0  0  0  0  0  0  0  0  0  0  0  0
    4.4328   -3.4832    0.7682 O   0  0  0  0  0  0  0  0  0  0  0  0
    2.2539   -3.0359   -0.0748 C   0  0  0  0  0  0  0  0  0  0  0  0
    1.4720   -2.1428   -1.0324 C   0  0  0  0  0  0  0  0  0  0  0  0
   -1.3790   -0.4921   -0.6976 C   0  0  0  0  0  0  0  0  0  0  0  0
  1  2  1  0
  2  3  1  0
  3  4  1  0
  4  5  2  0
  4  6  1  0
  6  7  1  0
  3  8  1  0
  8  9  2  0
  9 10  1  0
 10 11  1  0
 11 12  1  0
 12 13  2  0
 13 14  1  0
 14 15  1  0
 15 16  2  0
 16 17  1  0
 17 18  1  0
 16 19  1  0
 19 20  2  0
 20 21  1  0
 15 22  1  0
 22 23  1  0
 23 24  2  0
 23 25  1  0
 25 26  1  0
 12 27  1  0
 27  8  1  0
 21 11  1  0
 26 13  1  0
 21 14  2  0
M  END
