mol_f040040ff5c9
     RDKit          3D

 25 26  0  0  0  0  0  0  0  0999 V2000
   -4.6797   -2.5640    0.3578 C   0  0  0  0  0  0  0  0  0  0  0  0
   -4.1877   -1.1470    0.3891 C   0  0  0  0  0  0  0  0  0  0  0  0
   -4.8735   -0.1732    1.1235 C   0  0  0  0  0  0  0  0  0  0  0  0
   -4.4334    1.1552    1.1374 C   0  0  0  0  0  0  0  0  0  0  0  0
   -5.1386    2.1797    1.9768 C   0  0  0  0  0  0  0  0  0  0  0  0
   -3.2879    1.5025    0.4082 C   0  0  0  0  0  0  0  0  0  0  0  0
   -2.5973    0.5533   -0.3663 C   0  0  0  0  0  0  0  0  0  0  0  0
   -1.4096    0.9229   -1.1531 C   0  0  0  0  0  0  0  0  0  0  0  0
   -0.3106    0.1666   -0.8995 N   0  0  0  0  0  0  0  0  0  0  0  0
    0.8404    0.4800   -1.5493 C   0  0  0  0  0  0  0  0  0  0  0  0
    2.0528   -0.3721   -1.2997 C   0  0  0  0  0  0  0  0  0  0  0  0
    2.8967   -0.4397   -2.1975 O   0  0  0  0  0  0  0  0  0  0  0  0
    2.2142   -1.0600   -0.0880 N   0  0  0  0  0  0  0  0  0  0  0  0
    1.3608   -0.8793    1.0798 C   0  0  0  0  0  0  0  0  0  0  0  0
    3.2777   -2.0567    0.0138 C   0  0  0  0  0  0  0  0  0  0  0  0
    4.5108   -1.5546    0.7670 C   0  0  0  0  0  0  0  0  0  0  0  0
    5.2350   -0.4213    0.0413 C   0  0  0  0  0  0  0  0  0  0  0  0
    6.4897   -0.0226    0.7672 C   0  0  0  0  0  0  0  0  0  0  0  0
    6.9279   -0.4907    1.8042 O   0  0  0  0  0  0  0  0  0  0  0  0
    7.1447    0.9722    0.1370 O   0  0  0  0  0  0  0  0  0  0  0  0
    0.9313    1.5132   -2.4765 C   0  0  0  0  0  0  0  0  0  0  0  0
   -0.2047    2.2701   -2.7428 C   0  0  0  0  0  0  0  0  0  0  0  0
   -1.3900    1.9694   -2.0835 C   0  0  0  0  0  0  0  0  0  0  0  0
   -2.4819    2.7197   -2.4207 O   0  0  0  0  0  0  0  0  0  0  0  0
   -3.0624   -0.7724   -0.3576 C   0  0  0  0  0  0  0  0  0  0  0  0
  1  2  1  0
  2  3  2  0
  3  4  1  0
  4  5  1  0
  4  6  2  0
  6  7  1  0
  7  8  1  0
  8  9  1  0
  9 10  2  0
 10 11  1  0
 11 12  2  0
 11 13  1  0
 13 14  1  0
 13 15  1  0
 15 16  1  0
 16 17  1  0
 17 18  1  0
 18 19  2  0
 18 20  1  0
 10 21  1  0
 21 22  2  0
 22 23  1  0
 23 24  1  0
  7 25  2  0
 25  2  1  0
 23  8  2  0
M  END
