mol_437fe8a3af33
     RDKit          3D

 31 35  0  0  0  0  0  0  0  0999 V2000
   -2.9011   -3.0981   -1.2712 C   0  0  0  0  0  0  0  0  0  0  0  0
   -2.6560   -2.9829    0.2363 C   0  0  0  0  0  0  0  0  0  0  0  0
   -3.9359   -3.1867    1.0561 C   0  0  0  0  0  0  0  0  0  0  0  0
   -1.8580   -1.7312    0.6244 C   0  0  0  0  0  0  0  0  0  0  0  0
   -0.4649   -2.0311    1.1061 C   0  0  0  0  0  0  0  0  0  0  0  0
   -0.0257   -3.1803    1.0508 O   0  0  0  0  0  0  0  0  0  0  0  0
    0.3006   -0.9746    1.5915 N   0  0  0  0  0  0  0  0  0  0  0  0
   -0.1205    0.3646    1.5414 C   0  0  0  0  0  0  0  0  0  0  0  0
   -1.3479    0.6589    1.0425 C   0  0  0  0  0  0  0  0  0  0  0  0
   -1.8587    2.0364    0.9527 C   0  0  0  0  0  0  0  0  0  0  0  0
   -3.0796    2.3135    0.4647 C   0  0  0  0  0  0  0  0  0  0  0  0
   -3.9629    1.2426    0.0104 C   0  0  0  0  0  0  0  0  0  0  0  0
   -3.5663   -0.0398    0.0584 C   0  0  0  0  0  0  0  0  0  0  0  0
   -2.2482   -0.4350    0.5754 C   0  0  0  0  0  0  0  0  0  0  0  0
   -5.2145    1.5365   -0.5058 O   0  0  0  0  0  0  0  0  0  0  0  0
   -5.6841    2.8380   -0.1561 C   0  0  0  0  0  0  0  0  0  0  0  0
   -4.6036    3.8534   -0.4546 C   0  0  0  0  0  0  0  0  0  0  0  0
   -3.4970    3.6341    0.4201 O   0  0  0  0  0  0  0  0  0  0  0  0
    0.8692    1.4173    2.0565 C   0  0  0  0  0  0  0  0  0  0  0  0
    2.2935    1.3828    1.4728 C   0  0  2  0  0  0  0  0  0  0  0  0
    2.7627    2.6774    0.8130 C   0  0  0  0  0  0  0  0  0  0  0  0
    4.0326    2.2153    0.1086 C   0  0  0  0  0  0  0  0  0  0  0  0
    3.7188    0.8667   -0.3460 N   0  0  0  0  0  0  0  0  0  0  0  0
    4.3830    0.3577   -1.4381 C   0  0  0  0  0  0  0  0  0  0  0  0
    5.4030    0.8931   -1.8833 O   0  0  0  0  0  0  0  0  0  0  0  0
    3.8632   -0.8962   -2.1033 C   0  0  0  0  0  0  0  0  0  0  0  0
    4.8195   -2.0418   -1.8165 C   0  0  0  0  0  0  0  0  0  0  0  0
    5.9886   -1.9410   -2.6251 O   0  0  0  0  0  0  0  0  0  0  0  0
    2.5500    0.3373    0.3689 C   0  0  1  0  0  0  0  0  0  0  0  0
    2.7188   -1.0460    1.0078 C   0  0  0  0  0  0  0  0  0  0  0  0
    1.6468   -1.3204    2.0710 C   0  0  0  0  0  0  0  0  0  0  0  0
  1  2  1  0
  2  3  1  0
  2  4  1  0
  4  5  1  0
  5  6  2  0
  5  7  1  0
  7  8  1  0
  8  9  2  0
  9 10  1  0
 10 11  2  0
 11 12  1  0
 12 13  2  0
 13 14  1  0
 12 15  1  0
 15 16  1  0
 16 17  1  0
 17 18  1  0
  8 19  1  0
 20 19  1  6
 20 21  1  0
 21 22  1  0
 22 23  1  0
 23 24  1  0
 24 25  2  0
 24 26  1  0
 26 27  1  0
 27 28  1  0
 23 29  1  0
 29 30  1  1
 30 31  1  0
 14  4  2  0
 29 20  1  0
 31  7  1  0
 14  9  1  0
 18 11  1  0
M  END
