mol_55fd5ab0d273
     RDKit          3D

 28 30  0  0  0  0  0  0  0  0999 V2000
   -3.8580   -2.4850   -2.0459 C   0  0  0  0  0  0  0  0  0  0  0  0
   -3.3647   -1.3122   -1.3687 N   0  0  0  0  0  0  0  0  0  0  0  0
   -4.2000   -0.5415   -0.5913 C   0  0  0  0  0  0  0  0  0  0  0  0
   -5.3925   -0.8213   -0.4657 O   0  0  0  0  0  0  0  0  0  0  0  0
   -3.5924    0.7335    0.0475 C   0  0  2  0  0  0  0  0  0  0  0  0
   -4.5072    1.1424    1.2260 C   0  0  0  0  0  0  0  0  0  0  0  0
   -3.6012    1.8604   -1.0190 C   0  0  0  0  0  0  0  0  0  0  0  0
   -2.6027    2.9749   -0.7025 C   0  0  0  0  0  0  0  0  0  0  0  0
   -1.1540    2.4765   -0.6781 C   0  0  0  0  0  0  0  0  0  0  0  0
   -1.0662    0.9787   -0.3361 C   0  0  1  0  0  0  0  0  0  0  0  0
    0.2621    0.4170   -0.0108 N   0  0  0  0  0  0  0  0  0  0  0  0
    1.1420    0.9442    0.9550 C   0  0  0  0  0  0  0  0  0  0  0  0
    0.6862    2.0779    1.8486 C   0  0  0  0  0  0  0  0  0  0  0  0
    2.3834    0.4099    1.1087 C   0  0  0  0  0  0  0  0  0  0  0  0
    3.3735    0.9685    2.0438 C   0  0  0  0  0  0  0  0  0  0  0  0
    4.5938    0.4211    2.1694 C   0  0  0  0  0  0  0  0  0  0  0  0
    5.0091   -0.7352    1.3999 C   0  0  0  0  0  0  0  0  0  0  0  0
    6.2966   -1.1180    1.6856 O   0  0  0  0  0  0  0  0  0  0  0  0
    6.8341   -2.2217    0.9669 C   0  0  0  0  0  0  0  0  0  0  0  0
    4.1624   -1.3037    0.5171 C   0  0  0  0  0  0  0  0  0  0  0  0
    2.7999   -0.7715    0.3145 C   0  0  0  0  0  0  0  0  0  0  0  0
    1.9197   -1.3443   -0.5279 C   0  0  0  0  0  0  0  0  0  0  0  0
    2.2665   -2.5480   -1.2934 C   0  0  0  0  0  0  0  0  0  0  0  0
    3.0984   -2.6279   -2.1799 O   0  0  0  0  0  0  0  0  0  0  0  0
    1.5943   -3.6266   -0.8535 O   0  0  0  0  0  0  0  0  0  0  0  0
    0.5669   -0.7717   -0.7047 C   0  0  0  0  0  0  0  0  0  0  0  0
   -0.2392   -1.3329   -1.4523 O   0  0  0  0  0  0  0  0  0  0  0  0
   -2.1699    0.4846    0.6173 C   0  0  0  0  0  0  0  0  0  0  0  0
  1  2  1  0
  2  3  1  0
  3  4  2  0
  3  5  1  0
  5  6  1  1
  5  7  1  0
  7  8  1  0
  8  9  1  0
  9 10  1  0
 10 11  1  1
 11 12  1  0
 12 13  1  0
 12 14  2  0
 14 15  1  0
 15 16  2  0
 16 17  1  0
 17 18  1  0
 18 19  1  0
 17 20  2  0
 20 21  1  0
 21 22  2  0
 22 23  1  0
 23 24  2  0
 23 25  1  0
 22 26  1  0
 26 27  2  0
 10 28  1  0
 28  5  1  0
 26 11  1  0
 21 14  1  0
M  END
