mol_05e3683c1a11
     RDKit          3D

 27 29  0  0  0  0  0  0  0  0999 V2000
   -3.8292    1.3289    1.4110 C   0  0  0  0  0  0  0  0  0  0  0  0
   -3.9959   -0.1703    1.5026 C   0  0  0  0  0  0  0  0  0  0  0  0
   -5.0405   -0.5729    2.5155 C   0  0  0  0  0  0  0  0  0  0  0  0
   -3.2721   -1.0680    0.7897 C   0  0  0  0  0  0  0  0  0  0  0  0
   -3.4150   -2.5633    0.9177 C   0  0  0  0  0  0  0  0  0  0  0  0
   -2.2405   -0.6510   -0.1976 C   0  0  0  0  0  0  0  0  0  0  0  0
   -2.6956   -0.1279   -1.4184 C   0  0  0  0  0  0  0  0  0  0  0  0
   -1.7943    0.2856   -2.3950 C   0  0  0  0  0  0  0  0  0  0  0  0
   -2.2734    0.8671   -3.7066 C   0  0  2  0  0  0  0  0  0  0  0  0
   -2.9461    2.2225   -3.5341 C   0  0  0  0  0  0  0  0  0  0  0  0
   -3.1914   -0.0249   -4.3354 O   0  0  0  0  0  0  0  0  0  0  0  0
   -0.4251    0.1552   -2.1273 C   0  0  0  0  0  0  0  0  0  0  0  0
    0.0729   -0.3839   -0.9102 C   0  0  0  0  0  0  0  0  0  0  0  0
    1.4644   -0.5381   -0.6107 C   0  0  0  0  0  0  0  0  0  0  0  0
    1.8493   -1.0697    0.6331 C   0  0  0  0  0  0  0  0  0  0  0  0
    0.8419   -1.4185    1.5164 C   0  0  0  0  0  0  0  0  0  0  0  0
   -0.4729   -1.3035    1.2558 N   0  0  0  0  0  0  0  0  0  0  0  0
   -0.8662   -0.7910    0.0728 C   0  0  0  0  0  0  0  0  0  0  0  0
    3.2894   -1.2741    1.0352 C   0  0  0  0  0  0  0  0  0  0  0  0
    4.0077   -0.0065    1.2441 N   0  0  0  0  0  0  0  0  0  0  0  0
    5.1374   -0.2319    2.1813 C   0  0  0  0  0  0  0  0  0  0  0  0
    5.7442    1.0750    2.6657 C   0  0  0  0  0  0  0  0  0  0  0  0
    6.7810    1.5800    2.2615 O   0  0  0  0  0  0  0  0  0  0  0  0
    5.0099    1.6860    3.6178 O   0  0  0  0  0  0  0  0  0  0  0  0
    4.5048    0.5559   -0.0253 C   0  0  0  0  0  0  0  0  0  0  0  0
    3.4215    1.0033   -1.0138 C   0  0  0  0  0  0  0  0  0  0  0  0
    2.5680   -0.1365   -1.5681 C   0  0  0  0  0  0  0  0  0  0  0  0
  1  2  1  0
  2  3  1  0
  2  4  2  3
  4  5  1  0
  4  6  1  0
  6  7  1  0
  7  8  2  0
  8  9  1  0
  9 10  1  1
  9 11  1  0
  8 12  1  0
 12 13  2  0
 13 14  1  0
 14 15  2  0
 15 16  1  0
 16 17  2  0
 17 18  1  0
 15 19  1  0
 19 20  1  0
 20 21  1  0
 21 22  1  0
 22 23  2  0
 22 24  1  0
 20 25  1  0
 25 26  1  0
 26 27  1  0
 18  6  2  0
 18 13  1  0
 27 14  1  0
M  END
