mol_33dad469add6
     RDKit          3D

 25 28  0  0  0  0  0  0  0  0999 V2000
    4.3654    3.1827   -0.3330 C   0  0  0  0  0  0  0  0  0  0  0  0
    4.1279    1.8154   -0.6384 O   0  0  0  0  0  0  0  0  0  0  0  0
    2.9942    1.2467   -0.1455 C   0  0  0  0  0  0  0  0  0  0  0  0
    2.0348    1.8879    0.6554 C   0  0  0  0  0  0  0  0  0  0  0  0
    0.8753    1.2118    1.1020 C   0  0  0  0  0  0  0  0  0  0  0  0
    0.6611   -0.1278    0.7699 C   0  0  0  0  0  0  0  0  0  0  0  0
    1.6309   -0.7351    0.0027 C   0  0  0  0  0  0  0  0  0  0  0  0
    2.7541   -0.0785   -0.4612 C   0  0  0  0  0  0  0  0  0  0  0  0
    3.4721   -1.0558   -1.2852 C   0  0  0  0  0  0  0  0  0  0  0  0
    4.5204   -0.8489   -1.8720 O   0  0  0  0  0  0  0  0  0  0  0  0
    2.6900   -2.3653   -1.3078 C   0  0  0  0  0  0  0  0  0  0  0  0
    1.5666   -2.0518   -0.4228 N   0  0  0  0  0  0  0  0  0  0  0  0
    0.5817   -2.9233   -0.0427 C   0  0  0  0  0  0  0  0  0  0  0  0
    0.4905   -4.0610   -0.4982 O   0  0  0  0  0  0  0  0  0  0  0  0
   -0.3269   -2.4364    1.0791 C   0  0  0  0  0  0  0  0  0  0  0  0
   -0.5766   -0.9139    1.1237 C   0  0  2  0  0  0  0  0  0  0  0  0
   -1.7834   -0.4965    0.2893 C   0  0  0  0  0  0  0  0  0  0  0  0
   -1.8621   -0.7511   -1.0895 C   0  0  0  0  0  0  0  0  0  0  0  0
   -2.9773   -0.3502   -1.8286 C   0  0  0  0  0  0  0  0  0  0  0  0
   -4.0303    0.3153   -1.2035 C   0  0  0  0  0  0  0  0  0  0  0  0
   -3.9717    0.5845    0.1670 C   0  0  0  0  0  0  0  0  0  0  0  0
   -5.1119    1.2985    0.7914 C   0  0  0  0  0  0  0  0  0  0  0  0
   -6.1169    1.6780    0.2198 O   0  0  0  0  0  0  0  0  0  0  0  0
   -4.9393    1.5078    2.1090 O   0  0  0  0  0  0  0  0  0  0  0  0
   -2.8516    0.1795    0.9074 C   0  0  0  0  0  0  0  0  0  0  0  0
  1  2  1  0
  2  3  1  0
  3  4  1  0
  4  5  2  0
  5  6  1  0
  6  7  2  0
  7  8  1  0
  8  9  1  0
  9 10  2  0
  9 11  1  0
 11 12  1  0
 12 13  1  0
 13 14  2  0
 13 15  1  0
 15 16  1  0
 16 17  1  6
 17 18  2  0
 18 19  1  0
 19 20  2  0
 20 21  1  0
 21 22  1  0
 22 23  2  0
 22 24  1  0
 21 25  2  0
  8  3  2  0
 25 17  1  0
 16  6  1  0
 12  7  1  0
M  END
