mol_aed211bde3f6
     RDKit          3D

 31 36  0  0  0  0  0  0  0  0999 V2000
    2.9759    1.2667   -2.1452 O   0  0  0  0  0  0  0  0  0  0  0  0
    2.9112    0.7306   -1.0382 C   0  0  0  0  0  0  0  0  0  0  0  0
    1.8158   -0.2767   -0.7202 C   0  0  0  0  0  0  0  0  0  0  0  0
    0.6074   -0.0977   -1.6357 C   0  0  1  0  0  0  0  0  0  0  0  0
   -0.2139   -1.3576   -1.7675 C   0  0  0  0  0  0  0  0  0  0  0  0
   -1.4512   -1.1619   -1.3113 C   0  0  0  0  0  0  0  0  0  0  0  0
   -2.5463   -2.0908   -1.2657 C   0  0  0  0  0  0  0  0  0  0  0  0
   -3.7444   -1.7375   -0.7633 C   0  0  0  0  0  0  0  0  0  0  0  0
   -4.8576   -2.6823   -0.7157 C   0  0  0  0  0  0  0  0  0  0  0  0
   -6.0283   -2.2782   -0.2050 C   0  0  0  0  0  0  0  0  0  0  0  0
   -7.1643   -3.0467   -0.0910 O   0  0  0  0  0  0  0  0  0  0  0  0
   -8.0713   -2.1923    0.4830 C   0  0  0  0  0  0  0  0  0  0  0  0
   -9.2245   -2.4774    0.7632 O   0  0  0  0  0  0  0  0  0  0  0  0
   -7.4851   -0.8713    0.7277 C   0  0  0  0  0  0  0  0  0  0  0  0
   -6.2323   -0.9541    0.2963 C   0  0  0  0  0  0  0  0  0  0  0  0
   -5.1651    0.0592    0.2848 C   0  0  0  0  0  0  0  0  0  0  0  0
   -5.3293    1.3611    0.7634 C   0  0  0  0  0  0  0  0  0  0  0  0
   -4.2639    2.2619    0.7133 C   0  0  0  0  0  0  0  0  0  0  0  0
   -3.0258    1.8761    0.1879 C   0  0  0  0  0  0  0  0  0  0  0  0
   -2.8341    0.5795   -0.2958 C   0  0  0  0  0  0  0  0  0  0  0  0
   -3.9106   -0.3339   -0.2482 C   0  0  0  0  0  0  0  0  0  0  0  0
   -1.6078    0.1196   -0.8420 N   0  0  0  0  0  0  0  0  0  0  0  0
   -0.4141    0.8420   -0.9770 C   0  0  0  0  0  0  0  0  0  0  0  0
   -0.1638    1.9870   -0.6286 O   0  0  0  0  0  0  0  0  0  0  0  0
    3.8609    0.9691   -0.0476 N   0  0  0  0  0  0  0  0  0  0  0  0
    3.9386    0.2171    1.2015 C   0  0  0  0  0  0  0  0  0  0  0  0
    5.3001    0.1772    1.8922 C   0  0  0  0  0  0  0  0  0  0  0  0
    6.4442   -0.2405    0.9698 C   0  0  0  0  0  0  0  0  0  0  0  0
    7.0450    0.8857    0.2575 N   0  0  0  0  0  0  0  0  0  0  0  0
    6.1850    1.4643   -0.7847 C   0  0  0  0  0  0  0  0  0  0  0  0
    4.8461    2.0268   -0.2842 C   0  0  0  0  0  0  0  0  0  0  0  0
  1  2  2  0
  2  3  1  0
  4  3  1  1
  4  5  1  0
  5  6  2  0
  6  7  1  0
  7  8  2  0
  8  9  1  0
  9 10  2  0
 10 11  1  0
 11 12  1  0
 12 13  2  0
 12 14  1  0
 14 15  2  0
 15 16  1  0
 16 17  1  0
 17 18  2  0
 18 19  1  0
 19 20  2  0
 20 21  1  0
 20 22  1  0
 22 23  1  0
 23 24  2  0
  2 25  1  0
 25 26  1  0
 26 27  1  0
 27 28  1  0
 28 29  1  0
 29 30  1  0
 30 31  1  0
 23  4  1  0
 31 25  1  0
 22  6  1  0
 21  8  1  0
 15 10  1  0
 21 16  2  0
M  END
