mol_4f0cfa1230d6
     RDKit          3D

 27 29  0  0  0  0  0  0  0  0999 V2000
   -3.9532   -0.7173    1.1854 C   0  0  0  0  0  0  0  0  0  0  0  0
   -4.2336    0.1595   -0.0287 C   0  0  0  0  0  0  0  0  0  0  0  0
   -3.2838   -0.1331   -1.2045 C   0  0  1  0  0  0  0  0  0  0  0  0
   -3.5682    0.6838   -2.4734 C   0  0  0  0  0  0  0  0  0  0  0  0
   -2.8141    0.7965   -3.4313 O   0  0  0  0  0  0  0  0  0  0  0  0
   -4.7989    1.2289   -2.5281 O   0  0  0  0  0  0  0  0  0  0  0  0
   -1.8543   -0.0145   -0.8569 N   0  0  0  0  0  0  0  0  0  0  0  0
   -0.9704   -1.1013   -1.2746 C   0  0  0  0  0  0  0  0  0  0  0  0
    0.1701   -1.2058   -0.3161 C   0  0  0  0  0  0  0  0  0  0  0  0
    0.8153   -2.3467    0.1247 C   0  0  0  0  0  0  0  0  0  0  0  0
    0.5470   -3.7797   -0.2206 C   0  0  0  0  0  0  0  0  0  0  0  0
   -0.4249   -4.3801    0.7614 C   0  0  0  0  0  0  0  0  0  0  0  0
   -0.1528   -5.1220    1.6916 O   0  0  0  0  0  0  0  0  0  0  0  0
   -1.7074   -4.0268    0.5289 O   0  0  0  0  0  0  0  0  0  0  0  0
    2.0910   -1.9658    1.2018 S   0  0  0  0  0  0  0  0  0  0  0  0
    1.7939   -0.2831    1.0937 C   0  0  0  0  0  0  0  0  0  0  0  0
    2.6526    0.6777    1.8745 C   0  0  0  0  0  0  0  0  0  0  0  0
    3.4806    1.5899    0.9947 C   0  0  0  0  0  0  0  0  0  0  0  0
    3.2392    2.9714    0.9709 C   0  0  0  0  0  0  0  0  0  0  0  0
    4.0023    3.8105    0.1571 C   0  0  0  0  0  0  0  0  0  0  0  0
    5.0165    3.2798   -0.6374 C   0  0  0  0  0  0  0  0  0  0  0  0
    5.2701    1.9100   -0.6186 C   0  0  0  0  0  0  0  0  0  0  0  0
    4.5082    1.0690    0.1939 C   0  0  0  0  0  0  0  0  0  0  0  0
    0.7240   -0.0185    0.2590 C   0  0  0  0  0  0  0  0  0  0  0  0
    0.1346    1.3113   -0.0876 C   0  0  0  0  0  0  0  0  0  0  0  0
   -1.3538    1.2142   -0.4251 C   0  0  0  0  0  0  0  0  0  0  0  0
   -2.0679    2.2161   -0.3382 O   0  0  0  0  0  0  0  0  0  0  0  0
  1  2  1  0
  3  2  1  1
  3  4  1  0
  4  5  2  0
  4  6  1  0
  3  7  1  0
  7  8  1  0
  8  9  1  0
  9 10  2  0
 10 11  1  0
 11 12  1  0
 12 13  2  0
 12 14  1  0
 10 15  1  0
 15 16  1  0
 16 17  1  0
 17 18  1  0
 18 19  2  0
 19 20  1  0
 20 21  2  0
 21 22  1  0
 22 23  2  0
 16 24  2  0
 24 25  1  0
 25 26  1  0
 26 27  2  0
 26  7  1  0
 24  9  1  0
 23 18  1  0
M  END
