mol_f97a9f78a8ac
     RDKit          3D

 29 33  0  0  0  0  0  0  0  0999 V2000
   -4.3833    3.8848    0.4615 C   0  0  0  0  0  0  0  0  0  0  0  0
   -3.9735    2.4544    0.7641 C   0  0  0  0  0  0  0  0  0  0  0  0
   -3.3604    1.9139   -0.4141 O   0  0  0  0  0  0  0  0  0  0  0  0
   -2.6153    0.7899   -0.1233 C   0  0  0  0  0  0  0  0  0  0  0  0
   -3.2530   -0.4133    0.1743 C   0  0  0  0  0  0  0  0  0  0  0  0
   -2.4902   -1.5532    0.4448 C   0  0  0  0  0  0  0  0  0  0  0  0
   -1.0647   -1.4838    0.4192 C   0  0  0  0  0  0  0  0  0  0  0  0
   -0.3088   -2.6109    0.8108 C   0  0  0  0  0  0  0  0  0  0  0  0
    1.0777   -2.6339    0.7805 C   0  0  0  0  0  0  0  0  0  0  0  0
    1.7631   -1.5395    0.2846 C   0  0  0  0  0  0  0  0  0  0  0  0
    1.0587   -0.3844   -0.1531 C   0  0  0  0  0  0  0  0  0  0  0  0
   -0.3826   -0.2895    0.0049 C   0  0  0  0  0  0  0  0  0  0  0  0
   -1.2066    0.8802   -0.2030 C   0  0  0  0  0  0  0  0  0  0  0  0
   -0.6381    2.2545   -0.4770 C   0  0  0  0  0  0  0  0  0  0  0  0
    1.9030    0.7172   -0.7849 C   0  0  0  0  0  0  0  0  0  0  0  0
    3.1524    0.1456   -1.4448 C   0  0  1  0  0  0  0  0  0  0  0  0
    4.1865    1.1729   -1.8952 C   0  0  0  0  0  0  0  0  0  0  0  0
    5.4912    0.3678   -1.8546 C   0  0  0  0  0  0  0  0  0  0  0  0
    5.3248   -0.5119   -0.6102 C   0  0  1  0  0  0  0  0  0  0  0  0
    5.9393    0.1889    0.6061 C   0  0  0  0  0  0  0  0  0  0  0  0
    7.1354    0.3732    0.7849 O   0  0  0  0  0  0  0  0  0  0  0  0
    5.0486    0.6896    1.4877 O   0  0  0  0  0  0  0  0  0  0  0  0
    3.8793   -0.6884   -0.5240 N   0  0  0  0  0  0  0  0  0  0  0  0
    3.2585   -1.6259    0.2548 C   0  0  0  0  0  0  0  0  0  0  0  0
    3.8670   -2.4698    0.9019 O   0  0  0  0  0  0  0  0  0  0  0  0
   -3.2090   -2.8507    0.7618 C   0  0  0  0  0  0  0  0  0  0  0  0
   -4.6814   -2.8089    0.3877 C   0  0  0  0  0  0  0  0  0  0  0  0
   -5.2508   -1.4861    0.8425 C   0  0  0  0  0  0  0  0  0  0  0  0
   -4.6256   -0.4083    0.1520 O   0  0  0  0  0  0  0  0  0  0  0  0
  1  2  1  0
  2  3  1  0
  3  4  1  0
  4  5  2  0
  5  6  1  0
  6  7  2  0
  7  8  1  0
  8  9  2  0
  9 10  1  0
 10 11  2  0
 11 12  1  0
 12 13  2  0
 13 14  1  0
 11 15  1  0
 16 15  1  1
 16 17  1  0
 17 18  1  0
 18 19  1  0
 19 20  1  1
 20 21  2  0
 20 22  1  0
 19 23  1  0
 23 24  1  0
 24 25  2  0
  6 26  1  0
 26 27  1  0
 27 28  1  0
 28 29  1  0
 13  4  1  0
 23 16  1  0
 29  5  1  0
 12  7  1  0
 24 10  1  0
M  END
