mol_31e0b8121a20
     RDKit          3D

 26 29  0  0  0  0  0  0  0  0999 V2000
    6.2670    2.6320    0.1781 C   0  0  0  0  0  0  0  0  0  0  0  0
    4.8863    2.3170    0.3110 O   0  0  0  0  0  0  0  0  0  0  0  0
    4.5316    1.0052    0.1442 C   0  0  0  0  0  0  0  0  0  0  0  0
    5.3981   -0.0427   -0.1486 C   0  0  0  0  0  0  0  0  0  0  0  0
    4.8933   -1.3347   -0.2786 C   0  0  0  0  0  0  0  0  0  0  0  0
    3.5198   -1.5727   -0.1255 C   0  0  0  0  0  0  0  0  0  0  0  0
    2.6072   -0.5333    0.1391 C   0  0  0  0  0  0  0  0  0  0  0  0
    3.1579    0.7504    0.2892 C   0  0  0  0  0  0  0  0  0  0  0  0
    1.2435   -0.7861    0.2507 N   0  0  0  0  0  0  0  0  0  0  0  0
    0.2637    0.2080    0.7026 C   0  0  0  0  0  0  0  0  0  0  0  0
   -0.1911    1.1628   -0.4232 C   0  0  2  0  0  0  0  0  0  0  0  0
   -0.8190    2.4441    0.1500 C   0  0  0  0  0  0  0  0  0  0  0  0
   -2.1642    2.1699    0.8189 C   0  0  0  0  0  0  0  0  0  0  0  0
   -3.1370    1.4194   -0.1080 C   0  0  2  0  0  0  0  0  0  0  0  0
   -4.4115    1.0821    0.6664 C   0  0  0  0  0  0  0  0  0  0  0  0
   -5.2707    0.1234   -0.1348 C   0  0  0  0  0  0  0  0  0  0  0  0
   -4.5133   -1.1685   -0.4183 C   0  0  2  0  0  0  0  0  0  0  0  0
   -4.3237   -2.0303    0.8302 C   0  0  0  0  0  0  0  0  0  0  0  0
   -3.1531   -0.9225   -1.0527 C   0  0  0  0  0  0  0  0  0  0  0  0
   -2.6412   -1.8006   -1.7504 O   0  0  0  0  0  0  0  0  0  0  0  0
   -2.4923    0.2573   -0.7346 N   0  0  0  0  0  0  0  0  0  0  0  0
   -1.1976    0.5075   -1.3721 C   0  0  0  0  0  0  0  0  0  0  0  0
    0.7513   -2.0604   -0.2806 C   0  0  0  0  0  0  0  0  0  0  0  0
    1.6004   -3.2123    0.2098 C   0  0  0  0  0  0  0  0  0  0  0  0
    3.0298   -2.9716   -0.1848 C   0  0  0  0  0  0  0  0  0  0  0  0
    3.7881   -3.8937   -0.4762 O   0  0  0  0  0  0  0  0  0  0  0  0
  1  2  1  0
  2  3  1  0
  3  4  1  0
  4  5  2  0
  5  6  1  0
  6  7  2  0
  7  8  1  0
  7  9  1  0
  9 10  1  0
 11 10  1  1
 11 12  1  0
 12 13  1  0
 14 13  1  1
 14 15  1  0
 15 16  1  0
 16 17  1  0
 17 18  1  1
 17 19  1  0
 19 20  2  0
 19 21  1  0
 21 22  1  0
  9 23  1  0
 23 24  1  0
 24 25  1  0
 25 26  2  0
  8  3  2  0
 22 11  1  0
 25  6  1  0
 21 14  1  0
M  END
