mol_5697b84d6bbd
     RDKit          3D

 29 34  0  0  0  0  0  0  0  0999 V2000
   -6.7367    0.5589   -0.9022 O   0  0  0  0  0  0  0  0  0  0  0  0
   -5.5730    0.2561   -0.6814 C   0  0  0  0  0  0  0  0  0  0  0  0
   -4.6530    0.4185   -1.6533 O   0  0  0  0  0  0  0  0  0  0  0  0
   -5.0604   -0.3617    0.6141 C   0  0  0  0  0  0  0  0  0  0  0  0
   -3.6804   -0.0075    0.9908 N   0  0  0  0  0  0  0  0  0  0  0  0
   -3.4638    1.4296    1.1686 C   0  0  0  0  0  0  0  0  0  0  0  0
   -2.0397    1.7236    1.5564 C   0  0  0  0  0  0  0  0  0  0  0  0
   -1.7056    2.6471    2.5295 C   0  0  0  0  0  0  0  0  0  0  0  0
   -0.4342    2.9400    2.8634 N   0  0  0  0  0  0  0  0  0  0  0  0
    0.5534    2.2729    2.2015 C   0  0  0  0  0  0  0  0  0  0  0  0
    0.3485    1.3250    1.1980 C   0  0  0  0  0  0  0  0  0  0  0  0
   -0.9976    1.0697    0.8716 C   0  0  0  0  0  0  0  0  0  0  0  0
   -1.4290    0.1299   -0.2429 C   0  0  2  0  0  0  0  0  0  0  0  0
   -2.6389   -0.7226    0.2281 C   0  0  0  0  0  0  0  0  0  0  0  0
   -0.2998   -0.6879   -0.7729 C   0  0  0  0  0  0  0  0  0  0  0  0
   -0.2698   -1.7167   -1.6390 C   0  0  0  0  0  0  0  0  0  0  0  0
    1.1621   -2.1379   -1.8839 C   0  0  0  0  0  0  0  0  0  0  0  0
    1.9116   -1.1790   -1.0072 C   0  0  0  0  0  0  0  0  0  0  0  0
    3.3174   -1.0523   -0.7796 C   0  0  0  0  0  0  0  0  0  0  0  0
    3.7518   -0.1063    0.0750 C   0  0  0  0  0  0  0  0  0  0  0  0
    2.7663    0.7995    0.7905 C   0  0  0  0  0  0  0  0  0  0  0  0
    3.2363    1.6491    1.5457 O   0  0  0  0  0  0  0  0  0  0  0  0
    1.3957    0.5910    0.5282 N   0  0  0  0  0  0  0  0  0  0  0  0
    1.0461   -0.3799   -0.3801 C   0  0  0  0  0  0  0  0  0  0  0  0
    5.1975    0.1397    0.4030 C   0  0  0  0  0  0  0  0  0  0  0  0
    6.1363   -0.7803   -0.3180 C   0  0  0  0  0  0  0  0  0  0  0  0
    5.7381   -1.7295   -1.1732 C   0  0  0  0  0  0  0  0  0  0  0  0
    4.3019   -1.9367   -1.4699 C   0  0  0  0  0  0  0  0  0  0  0  0
    3.9662   -2.8125   -2.2601 O   0  0  0  0  0  0  0  0  0  0  0  0
  1  2  2  0
  2  3  1  0
  2  4  1  0
  4  5  1  0
  5  6  1  0
  6  7  1  0
  7  8  1  0
  8  9  2  0
  9 10  1  0
 10 11  2  0
 11 12  1  0
 12 13  1  0
 13 14  1  1
 13 15  1  0
 15 16  2  0
 16 17  1  0
 17 18  1  0
 18 19  1  0
 19 20  2  0
 20 21  1  0
 21 22  2  0
 21 23  1  0
 23 24  1  0
 20 25  1  0
 25 26  1  0
 26 27  2  0
 27 28  1  0
 28 29  2  0
 14  5  1  0
 24 15  1  0
 12  7  2  0
 24 18  2  0
 23 11  1  0
 28 19  1  0
M  END
