mol_51ae69cbd806
     RDKit          3D

 30 33  0  0  0  0  0  0  0  0999 V2000
    8.2310   -1.6311    2.9335 O   0  0  0  0  0  0  0  0  0  0  0  0
    7.3818   -1.0625    2.2635 C   0  0  0  0  0  0  0  0  0  0  0  0
    7.2715   -1.3383    0.9461 O   0  0  0  0  0  0  0  0  0  0  0  0
    6.4432    0.0270    2.7651 C   0  0  0  0  0  0  0  0  0  0  0  0
    5.4654    0.4504    1.7751 N   0  0  0  0  0  0  0  0  0  0  0  0
    4.2298   -0.1520    1.6853 C   0  0  0  0  0  0  0  0  0  0  0  0
    3.8622   -1.0269    2.4622 O   0  0  0  0  0  0  0  0  0  0  0  0
    3.3761    0.3708    0.5357 C   0  0  1  0  0  0  0  0  0  0  0  0
    3.9375   -0.0891   -0.8204 C   0  0  0  0  0  0  0  0  0  0  0  0
    3.0036   -1.0839   -1.4968 C   0  0  0  0  0  0  0  0  0  0  0  0
    1.5806   -0.5229   -1.6271 C   0  0  0  0  0  0  0  0  0  0  0  0
    1.1235    0.2733   -0.4767 N   0  0  0  0  0  0  0  0  0  0  0  0
   -0.3247    0.1364   -0.2097 C   0  0  0  0  0  0  0  0  0  0  0  0
   -1.2629    0.9104   -1.1816 C   0  0  1  0  0  0  0  0  0  0  0  0
   -1.4629    0.2793   -2.5661 C   0  0  0  0  0  0  0  0  0  0  0  0
   -2.2190   -1.0427   -2.4838 C   0  0  0  0  0  0  0  0  0  0  0  0
   -3.5134   -0.8861   -1.7216 C   0  0  0  0  0  0  0  0  0  0  0  0
   -4.5310   -1.8244   -1.9341 C   0  0  0  0  0  0  0  0  0  0  0  0
   -5.7363   -1.7101   -1.2590 C   0  0  0  0  0  0  0  0  0  0  0  0
   -5.9355   -0.6536   -0.3715 C   0  0  0  0  0  0  0  0  0  0  0  0
   -4.9344    0.3170   -0.1255 C   0  0  0  0  0  0  0  0  0  0  0  0
   -5.0907    1.4098    0.7687 C   0  0  0  0  0  0  0  0  0  0  0  0
   -6.3402    1.6913    1.5084 C   0  0  0  0  0  0  0  0  0  0  0  0
   -6.4175    1.9883    2.6861 O   0  0  0  0  0  0  0  0  0  0  0  0
   -7.4200    1.7033    0.7082 O   0  0  0  0  0  0  0  0  0  0  0  0
   -4.0375    2.2973    1.0244 C   0  0  0  0  0  0  0  0  0  0  0  0
   -2.8195    2.1361    0.3794 C   0  0  0  0  0  0  0  0  0  0  0  0
   -2.6368    1.0841   -0.5292 C   0  0  0  0  0  0  0  0  0  0  0  0
   -3.6892    0.1720   -0.7968 C   0  0  0  0  0  0  0  0  0  0  0  0
    1.9073   -0.0405    0.7322 C   0  0  0  0  0  0  0  0  0  0  0  0
  1  2  2  0
  2  3  1  0
  2  4  1  0
  4  5  1  0
  5  6  1  0
  6  7  2  0
  8  6  1  1
  8  9  1  0
  9 10  1  0
 10 11  1  0
 11 12  1  0
 12 13  1  0
 14 13  1  1
 14 15  1  0
 15 16  1  0
 16 17  1  0
 17 18  1  0
 18 19  2  0
 19 20  1  0
 20 21  2  0
 21 22  1  0
 22 23  1  0
 23 24  2  0
 23 25  1  0
 22 26  2  0
 26 27  1  0
 27 28  2  0
 28 29  1  0
 12 30  1  0
 30  8  1  0
 28 14  1  0
 29 17  2  0
 29 21  1  0
M  END
