mol_70a18d5521b0
     RDKit          3D

 23 24  0  0  0  0  0  0  0  0999 V2000
    6.1253    0.7609    0.2018 C   0  0  0  0  0  0  0  0  0  0  0  0
    5.1972    0.5364    1.3856 C   0  0  0  0  0  0  0  0  0  0  0  0
    3.7482    0.6643    0.9934 C   0  0  0  0  0  0  0  0  0  0  0  0
    3.0907    1.8882    1.0834 C   0  0  0  0  0  0  0  0  0  0  0  0
    1.7504    1.9904    0.7031 C   0  0  0  0  0  0  0  0  0  0  0  0
    1.0350    0.9029    0.2222 C   0  0  0  0  0  0  0  0  0  0  0  0
   -0.2530    1.0870   -0.1017 N   0  0  0  0  0  0  0  0  0  0  0  0
   -0.9963    0.0526   -0.5693 C   0  0  0  0  0  0  0  0  0  0  0  0
   -2.4417    0.4037   -0.8454 C   0  0  0  0  0  0  0  0  0  0  0  0
   -3.4048   -0.0542    0.2707 C   0  0  1  0  0  0  0  0  0  0  0  0
   -3.2113    0.7560    1.5576 C   0  0  0  0  0  0  0  0  0  0  0  0
   -4.8678   -0.0164   -0.1964 C   0  0  0  0  0  0  0  0  0  0  0  0
   -5.3388    1.3483   -0.6179 C   0  0  0  0  0  0  0  0  0  0  0  0
   -5.1634    1.8620   -1.7098 O   0  0  0  0  0  0  0  0  0  0  0  0
   -5.9872    2.0056    0.3598 O   0  0  0  0  0  0  0  0  0  0  0  0
   -0.4683   -1.2248   -0.7480 C   0  0  0  0  0  0  0  0  0  0  0  0
   -1.2888   -2.3849   -1.2406 C   0  0  0  0  0  0  0  0  0  0  0  0
    0.8863   -1.3985   -0.3974 C   0  0  0  0  0  0  0  0  0  0  0  0
    1.4753   -2.7447   -0.5283 C   0  0  0  0  0  0  0  0  0  0  0  0
    1.1378   -3.7419    0.0784 O   0  0  0  0  0  0  0  0  0  0  0  0
    2.4171   -2.7662   -1.4868 O   0  0  0  0  0  0  0  0  0  0  0  0
    1.6780   -0.3366    0.1048 C   0  0  0  0  0  0  0  0  0  0  0  0
    3.0394   -0.4389    0.5019 C   0  0  0  0  0  0  0  0  0  0  0  0
  1  2  1  0
  2  3  1  0
  3  4  1  0
  4  5  2  0
  5  6  1  0
  6  7  2  0
  7  8  1  0
  8  9  1  0
  9 10  1  0
 10 11  1  1
 10 12  1  0
 12 13  1  0
 13 14  2  0
 13 15  1  0
  8 16  2  0
 16 17  1  0
 16 18  1  0
 18 19  1  0
 19 20  2  0
 19 21  1  0
 18 22  2  0
 22 23  1  0
 23  3  2  0
 22  6  1  0
M  END
