mol_227951d7c4d4
     RDKit          3D

 25 27  0  0  0  0  0  0  0  0999 V2000
   -5.6685    2.8796   -1.3285 C   0  0  0  0  0  0  0  0  0  0  0  0
   -5.5889    1.4229   -1.7508 C   0  0  0  0  0  0  0  0  0  0  0  0
   -4.8780    0.6532   -0.7820 O   0  0  0  0  0  0  0  0  0  0  0  0
   -3.5252    0.5221   -0.9068 C   0  0  0  0  0  0  0  0  0  0  0  0
   -2.7104    1.1776   -1.8155 C   0  0  0  0  0  0  0  0  0  0  0  0
   -1.3335    0.9324   -1.8122 C   0  0  0  0  0  0  0  0  0  0  0  0
   -0.7406    0.0508   -0.9198 C   0  0  0  0  0  0  0  0  0  0  0  0
    0.5803   -0.1181   -1.0080 N   0  0  0  0  0  0  0  0  0  0  0  0
    1.1775   -0.9839   -0.1470 C   0  0  0  0  0  0  0  0  0  0  0  0
    2.6515   -1.1750   -0.3731 C   0  0  0  0  0  0  0  0  0  0  0  0
    3.1009   -2.3212   -0.4155 O   0  0  0  0  0  0  0  0  0  0  0  0
    3.4683   -0.0481   -0.5314 N   0  0  0  0  0  0  0  0  0  0  0  0
    4.8683   -0.2518   -0.8921 C   0  0  0  0  0  0  0  0  0  0  0  0
    5.4225    0.9246   -1.6859 C   0  0  0  0  0  0  0  0  0  0  0  0
    5.3032    2.2428   -0.9201 C   0  0  0  0  0  0  0  0  0  0  0  0
    4.1624    2.2434    0.0976 C   0  0  0  0  0  0  0  0  0  0  0  0
    3.0166    1.3299   -0.3244 C   0  0  0  0  0  0  0  0  0  0  0  0
    0.5006   -1.6901    0.8480 C   0  0  0  0  0  0  0  0  0  0  0  0
    1.2265   -2.6336    1.7685 C   0  0  0  0  0  0  0  0  0  0  0  0
   -0.8972   -1.5139    0.9282 C   0  0  0  0  0  0  0  0  0  0  0  0
   -1.6011   -2.2365    1.8989 N   0  0  0  0  0  0  0  0  0  0  0  0
   -2.3083   -3.4281    1.4600 C   0  0  0  0  0  0  0  0  0  0  0  0
   -2.0538   -1.5253    3.0825 C   0  0  0  0  0  0  0  0  0  0  0  0
   -1.5441   -0.6201    0.0223 C   0  0  0  0  0  0  0  0  0  0  0  0
   -2.9389   -0.3635    0.0012 C   0  0  0  0  0  0  0  0  0  0  0  0
  1  2  1  0
  2  3  1  0
  3  4  1  0
  4  5  1  0
  5  6  2  0
  6  7  1  0
  7  8  2  0
  8  9  1  0
  9 10  1  0
 10 11  2  0
 10 12  1  0
 12 13  1  0
 13 14  1  0
 14 15  1  0
 15 16  1  0
 16 17  1  0
  9 18  2  0
 18 19  1  0
 18 20  1  0
 20 21  1  0
 21 22  1  0
 21 23  1  0
 20 24  2  0
 24 25  1  0
 25  4  2  0
 24  7  1  0
 17 12  1  0
M  END
