mol_478dec5fd01f
     RDKit          3D

 22 23  0  0  0  0  0  0  0  0999 V2000
    3.1158    2.2614    1.6350 C   0  0  0  0  0  0  0  0  0  0  0  0
    4.2967    1.4170    1.4839 N   0  0  0  0  0  0  0  0  0  0  0  0
    3.9603   -0.0088    1.5528 C   0  0  0  0  0  0  0  0  0  0  0  0
    3.1890   -0.5050    0.3508 C   0  0  0  0  0  0  0  0  0  0  0  0
    3.7317   -0.4028   -0.9343 C   0  0  0  0  0  0  0  0  0  0  0  0
    3.0215   -0.8731   -2.0375 C   0  0  0  0  0  0  0  0  0  0  0  0
    1.7520   -1.4494   -1.8718 C   0  0  0  0  0  0  0  0  0  0  0  0
    1.0612   -1.9312   -3.0934 C   0  0  0  0  0  0  0  0  0  0  0  0
    1.7708   -2.8016   -3.8710 N   0  0  0  0  0  0  0  0  0  0  0  0
   -0.0704   -1.5764   -3.3892 O   0  0  0  0  0  0  0  0  0  0  0  0
    1.1690   -1.5427   -0.5937 C   0  0  0  0  0  0  0  0  0  0  0  0
   -0.1790   -2.1921   -0.3458 C   0  0  0  0  0  0  0  0  0  0  0  0
   -1.0652   -1.4299    0.6379 C   0  0  0  0  0  0  0  0  0  0  0  0
   -1.0566   -1.7523    1.8305 O   0  0  0  0  0  0  0  0  0  0  0  0
   -1.8480   -0.3821    0.1564 N   0  0  0  0  0  0  0  0  0  0  0  0
   -1.8665   -0.0035   -1.2536 C   0  0  0  0  0  0  0  0  0  0  0  0
   -2.7107    0.3480    1.0932 C   0  0  0  0  0  0  0  0  0  0  0  0
   -2.4580    1.8677    1.1219 C   0  0  0  0  0  0  0  0  0  0  0  0
   -3.7955    2.5158    0.7785 C   0  0  0  0  0  0  0  0  0  0  0  0
   -4.8294    1.4932    1.2199 C   0  0  0  0  0  0  0  0  0  0  0  0
   -4.2081    0.1708    0.7981 C   0  0  0  0  0  0  0  0  0  0  0  0
    1.9193   -1.0830    0.5086 C   0  0  0  0  0  0  0  0  0  0  0  0
  1  2  1  0
  2  3  1  0
  3  4  1  0
  4  5  1  0
  5  6  2  0
  6  7  1  0
  7  8  1  0
  8  9  1  0
  8 10  2  0
  7 11  2  0
 11 12  1  0
 12 13  1  0
 13 14  2  0
 13 15  1  0
 15 16  1  0
 15 17  1  0
 17 18  1  0
 18 19  1  0
 19 20  1  0
 20 21  1  0
 11 22  1  0
 22  4  2  0
 21 17  1  0
M  END
