mol_4affcb02d5c1
     RDKit          3D

 27 30  0  0  0  0  0  0  0  0999 V2000
    6.6709    0.7176   -0.6583 C   0  0  0  0  0  0  0  0  0  0  0  0
    5.4253   -0.1305   -0.8662 C   0  0  0  0  0  0  0  0  0  0  0  0
    5.0894   -0.9443    0.3833 C   0  0  0  0  0  0  0  0  0  0  0  0
    3.9143   -1.9103    0.1903 C   0  0  0  0  0  0  0  0  0  0  0  0
    2.6349   -1.2509   -0.0586 N   0  0  0  0  0  0  0  0  0  0  0  0
    2.1654   -1.2124   -1.4371 C   0  0  0  0  0  0  0  0  0  0  0  0
    1.9473   -0.7193    1.0321 C   0  0  0  0  0  0  0  0  0  0  0  0
    2.4562   -0.5897    2.1483 O   0  0  0  0  0  0  0  0  0  0  0  0
    0.5851   -0.1673    0.8742 C   0  0  0  0  0  0  0  0  0  0  0  0
    0.3686    1.1656    1.2476 C   0  0  0  0  0  0  0  0  0  0  0  0
    1.3779    1.9313    1.7801 O   0  0  0  0  0  0  0  0  0  0  0  0
   -0.8926    1.7581    1.0990 C   0  0  0  0  0  0  0  0  0  0  0  0
   -1.9708    0.9924    0.5945 C   0  0  0  0  0  0  0  0  0  0  0  0
   -3.2564    1.5509    0.4292 C   0  0  0  0  0  0  0  0  0  0  0  0
   -4.3221    0.7651   -0.0394 C   0  0  0  0  0  0  0  0  0  0  0  0
   -4.1410   -0.5878   -0.3189 C   0  0  0  0  0  0  0  0  0  0  0  0
   -5.1255   -1.4399   -0.7425 O   0  0  0  0  0  0  0  0  0  0  0  0
   -6.4499   -0.9271   -0.8134 C   0  0  0  0  0  0  0  0  0  0  0  0
   -2.8634   -1.1489   -0.1744 C   0  0  0  0  0  0  0  0  0  0  0  0
   -1.7706   -0.3711    0.2700 C   0  0  0  0  0  0  0  0  0  0  0  0
   -0.4860   -0.9391    0.4091 C   0  0  0  0  0  0  0  0  0  0  0  0
   -0.2561   -2.2717    0.1370 O   0  0  0  0  0  0  0  0  0  0  0  0
   -1.1631   -2.8028   -0.8354 C   0  0  0  0  0  0  0  0  0  0  0  0
   -2.6140   -2.6165   -0.4213 C   0  0  0  0  0  0  0  0  0  0  0  0
   -3.4935    3.0139    0.7225 C   0  0  0  0  0  0  0  0  0  0  0  0
   -2.5505    3.5123    1.8105 C   0  0  0  0  0  0  0  0  0  0  0  0
   -1.0977    3.2158    1.4500 C   0  0  0  0  0  0  0  0  0  0  0  0
  1  2  1  0
  2  3  1  0
  3  4  1  0
  4  5  1  0
  5  6  1  0
  5  7  1  0
  7  8  2  0
  7  9  1  0
  9 10  1  0
 10 11  1  0
 10 12  2  0
 12 13  1  0
 13 14  2  0
 14 15  1  0
 15 16  2  0
 16 17  1  0
 17 18  1  0
 16 19  1  0
 19 20  2  0
 20 21  1  0
 21 22  1  0
 22 23  1  0
 23 24  1  0
 14 25  1  0
 25 26  1  0
 26 27  1  0
 21  9  2  0
 27 12  1  0
 20 13  1  0
 24 19  1  0
M  END
