mol_2f2bb1246ae7
     RDKit          3D

 27 30  0  0  0  0  0  0  0  0999 V2000
   -3.1644   -2.0928    0.2463 C   0  0  0  0  0  0  0  0  0  0  0  0
   -2.3893   -1.9358   -0.9881 N   0  0  0  0  0  0  0  0  0  0  0  0
   -3.0069   -0.9567   -1.8849 C   0  0  0  0  0  0  0  0  0  0  0  0
   -2.1262    0.2410   -2.1998 C   0  0  0  0  0  0  0  0  0  0  0  0
   -1.4045    0.7632   -0.9506 C   0  0  1  0  0  0  0  0  0  0  0  0
   -2.3522    1.4745    0.0167 C   0  0  0  0  0  0  0  0  0  0  0  0
   -1.6682    2.6168    0.7656 C   0  0  2  0  0  0  0  0  0  0  0  0
   -1.4496    3.7942   -0.1808 C   0  0  0  0  0  0  0  0  0  0  0  0
   -0.4265    4.1141   -0.7652 O   0  0  0  0  0  0  0  0  0  0  0  0
   -2.5844    4.4995   -0.3932 O   0  0  0  0  0  0  0  0  0  0  0  0
   -0.3769    2.3019    1.4815 C   0  0  0  0  0  0  0  0  0  0  0  0
   -0.0801    3.2736    2.4386 O   0  0  0  0  0  0  0  0  0  0  0  0
    0.4512    1.2503    1.3461 C   0  0  0  0  0  0  0  0  0  0  0  0
    0.4501    0.0189    0.5238 C   0  0  0  0  0  0  0  0  0  0  0  0
   -0.5770   -0.3421   -0.2879 C   0  0  0  0  0  0  0  0  0  0  0  0
   -0.9167   -1.7504   -0.8112 C   0  0  1  0  0  0  0  0  0  0  0  0
   -0.4189   -2.9258   -0.0003 C   0  0  0  0  0  0  0  0  0  0  0  0
    0.7117   -3.0935    0.6917 C   0  0  0  0  0  0  0  0  0  0  0  0
    1.8369   -2.1725    0.6581 C   0  0  0  0  0  0  0  0  0  0  0  0
    3.1137   -2.7722    0.7184 C   0  0  0  0  0  0  0  0  0  0  0  0
    4.2797   -2.0186    0.5963 C   0  0  0  0  0  0  0  0  0  0  0  0
    4.1882   -0.6461    0.3979 C   0  0  0  0  0  0  0  0  0  0  0  0
    5.4416    0.1295    0.2400 C   0  0  0  0  0  0  0  0  0  0  0  0
    6.5672   -0.3327    0.2217 O   0  0  0  0  0  0  0  0  0  0  0  0
    5.2265    1.4512    0.1232 O   0  0  0  0  0  0  0  0  0  0  0  0
    2.9240   -0.0442    0.3541 C   0  0  0  0  0  0  0  0  0  0  0  0
    1.7248   -0.7847    0.5253 C   0  0  0  0  0  0  0  0  0  0  0  0
  1  2  1  0
  2  3  1  0
  3  4  1  0
  5  4  1  6
  5  6  1  0
  6  7  1  0
  7  8  1  6
  8  9  2  0
  8 10  1  0
  7 11  1  0
 11 12  1  0
 11 13  2  0
 13 14  1  0
 14 15  2  0
 15 16  1  0
 16 17  1  0
 17 18  2  0
 18 19  1  0
 19 20  1  0
 20 21  2  0
 21 22  1  0
 22 23  1  0
 23 24  2  0
 23 25  1  0
 22 26  2  0
 26 27  1  0
 16  2  1  1
 27 19  2  0
 15  5  1  0
 27 14  1  0
M  END
