mol_8343f72955c1
     RDKit          3D

 27 30  0  0  0  0  0  0  0  0999 V2000
   -6.3938    0.1215    0.0355 O   0  0  0  0  0  0  0  0  0  0  0  0
   -5.6078   -0.7264    0.4432 C   0  0  0  0  0  0  0  0  0  0  0  0
   -6.0401   -1.9360    0.9351 N   0  0  0  0  0  0  0  0  0  0  0  0
   -5.1947   -2.8220    1.3470 C   0  0  0  0  0  0  0  0  0  0  0  0
   -3.7029   -2.6886    1.3539 C   0  0  0  0  0  0  0  0  0  0  0  0
   -3.2295   -1.3701    0.8326 C   0  0  0  0  0  0  0  0  0  0  0  0
   -1.8546   -1.0918    0.7848 C   0  0  0  0  0  0  0  0  0  0  0  0
   -1.4209    0.1592    0.2994 C   0  0  0  0  0  0  0  0  0  0  0  0
   -2.3341    1.1254   -0.1443 C   0  0  0  0  0  0  0  0  0  0  0  0
   -3.7137    0.8199   -0.0925 C   0  0  0  0  0  0  0  0  0  0  0  0
   -4.1492   -0.4225    0.3953 C   0  0  0  0  0  0  0  0  0  0  0  0
   -1.5890    2.2711   -0.5599 C   0  0  0  0  0  0  0  0  0  0  0  0
   -2.0386    3.5500   -1.0816 C   0  0  0  0  0  0  0  0  0  0  0  0
   -1.3032    4.4662   -1.4216 O   0  0  0  0  0  0  0  0  0  0  0  0
   -3.3759    3.6874   -1.1852 O   0  0  0  0  0  0  0  0  0  0  0  0
   -0.2585    1.9628   -0.3513 C   0  0  0  0  0  0  0  0  0  0  0  0
   -0.1278    0.6700    0.1267 N   0  0  0  0  0  0  0  0  0  0  0  0
    1.0823    0.0047    0.4662 C   0  0  0  0  0  0  0  0  0  0  0  0
    1.0618   -0.8998    1.2910 O   0  0  0  0  0  0  0  0  0  0  0  0
    2.2268    0.4967   -0.1644 N   0  0  0  0  0  0  0  0  0  0  0  0
    2.2430    0.7502   -1.6144 C   0  0  0  0  0  0  0  0  0  0  0  0
    3.3811   -0.0038   -2.3208 C   0  0  0  0  0  0  0  0  0  0  0  0
    3.6944   -1.3297   -1.6286 C   0  0  0  0  0  0  0  0  0  0  0  0
    4.0604   -1.1382   -0.1476 C   0  0  0  0  0  0  0  0  0  0  0  0
    3.5476    0.2019    0.4075 C   0  0  2  0  0  0  0  0  0  0  0  0
    3.6499    0.2830    1.9440 C   0  0  0  0  0  0  0  0  0  0  0  0
    5.0166    0.3150    2.3557 O   0  0  0  0  0  0  0  0  0  0  0  0
  1  2  2  0
  2  3  1  0
  3  4  2  0
  4  5  1  0
  5  6  1  0
  6  7  2  0
  7  8  1  0
  8  9  2  0
  9 10  1  0
 10 11  2  0
  9 12  1  0
 12 13  1  0
 13 14  2  0
 13 15  1  0
 12 16  2  0
 16 17  1  0
 17 18  1  0
 18 19  2  0
 18 20  1  0
 20 21  1  0
 21 22  1  0
 22 23  1  0
 23 24  1  0
 24 25  1  0
 25 26  1  1
 26 27  1  0
 11  2  1  0
 25 20  1  0
 11  6  1  0
 17  8  1  0
M  END
