mol_d2e89dd1def2
     RDKit          3D

 19 20  0  0  0  0  0  0  0  0999 V2000
   -4.8074    0.7421   -0.9510 C   0  0  0  0  0  0  0  0  0  0  0  0
   -3.4864    0.3273   -0.5234 N   0  0  0  0  0  0  0  0  0  0  0  0
   -2.6761    1.2557    0.2454 C   0  0  0  0  0  0  0  0  0  0  0  0
   -1.1958    1.1507   -0.1309 C   0  0  0  0  0  0  0  0  0  0  0  0
   -0.7065   -0.2209    0.0333 N   0  0  0  0  0  0  0  0  0  0  0  0
    0.6464   -0.4870    0.2093 C   0  0  0  0  0  0  0  0  0  0  0  0
    1.0998   -1.7207    0.6999 C   0  0  0  0  0  0  0  0  0  0  0  0
    2.4606   -1.9901    0.8825 C   0  0  0  0  0  0  0  0  0  0  0  0
    3.4174   -1.0262    0.5767 C   0  0  0  0  0  0  0  0  0  0  0  0
    3.0114    0.2095    0.0863 C   0  0  0  0  0  0  0  0  0  0  0  0
    3.8246    1.2512   -0.2624 O   0  0  0  0  0  0  0  0  0  0  0  0
    5.2229    1.0748   -0.1177 C   0  0  0  0  0  0  0  0  0  0  0  0
    5.8445    2.2088   -0.5122 F   0  0  0  0  0  0  0  0  0  0  0  0
    5.6716    0.0621   -0.8896 F   0  0  0  0  0  0  0  0  0  0  0  0
    5.5557    0.8432    1.1704 F   0  0  0  0  0  0  0  0  0  0  0  0
    1.6402    0.4621   -0.0893 C   0  0  0  0  0  0  0  0  0  0  0  0
   -1.6701   -1.3360   -0.1123 C   0  0  0  0  0  0  0  0  0  0  0  0
   -3.0366   -0.9696   -0.7236 C   0  0  0  0  0  0  0  0  0  0  0  0
   -3.7132   -1.8205   -1.3048 O   0  0  0  0  0  0  0  0  0  0  0  0
  1  2  1  0
  2  3  1  0
  3  4  1  0
  4  5  1  0
  5  6  1  0
  6  7  2  0
  7  8  1  0
  8  9  2  0
  9 10  1  0
 10 11  1  0
 11 12  1  0
 12 13  1  0
 12 14  1  0
 12 15  1  0
 10 16  2  0
  5 17  1  0
 17 18  1  0
 18 19  2  0
 18  2  1  0
 16  6  1  0
M  END
