mol_40cdd69353dd
     RDKit          3D

 26 28  0  0  0  0  0  0  0  0999 V2000
   -7.8215    0.6651   -1.0661 C   0  0  0  0  0  0  0  0  0  0  0  0
   -6.9490    0.0812    0.0336 C   0  0  0  0  0  0  0  0  0  0  0  0
   -5.4949    0.5306   -0.1071 C   0  0  0  0  0  0  0  0  0  0  0  0
   -4.6219   -0.0604    1.0021 C   0  0  0  0  0  0  0  0  0  0  0  0
   -3.1895    0.3756    0.8744 C   0  0  0  0  0  0  0  0  0  0  0  0
   -2.7172    1.5028    1.5162 C   0  0  0  0  0  0  0  0  0  0  0  0
   -1.4436    1.9430    1.4255 N   0  0  0  0  0  0  0  0  0  0  0  0
   -0.5586    1.2716    0.6614 C   0  0  0  0  0  0  0  0  0  0  0  0
    0.7555    1.7318    0.5813 C   0  0  0  0  0  0  0  0  0  0  0  0
    1.1783    2.9729    1.3203 C   0  0  0  0  0  0  0  0  0  0  0  0
    1.6439    1.0274   -0.2277 C   0  0  0  0  0  0  0  0  0  0  0  0
    3.0531    1.5040   -0.4416 C   0  0  0  0  0  0  0  0  0  0  0  0
    3.2413    2.6965   -0.6840 O   0  0  0  0  0  0  0  0  0  0  0  0
    4.1048    0.5828   -0.3642 N   0  0  0  0  0  0  0  0  0  0  0  0
    5.4481    1.0357   -0.7168 C   0  0  0  0  0  0  0  0  0  0  0  0
    6.3017   -0.1028   -1.2613 C   0  0  0  0  0  0  0  0  0  0  0  0
    6.4228   -1.2578   -0.2666 C   0  0  0  0  0  0  0  0  0  0  0  0
    5.2428   -1.3405    0.7018 C   0  0  0  0  0  0  0  0  0  0  0  0
    3.9560   -0.8032    0.0850 C   0  0  0  0  0  0  0  0  0  0  0  0
    1.3111   -0.0967   -0.9116 N   0  0  0  0  0  0  0  0  0  0  0  0
    0.0364   -0.5362   -0.8319 C   0  0  0  0  0  0  0  0  0  0  0  0
   -0.2361   -1.7875   -1.6336 C   0  0  0  0  0  0  0  0  0  0  0  0
    0.0751   -3.0524   -0.8398 C   0  0  0  0  0  0  0  0  0  0  0  0
   -0.9234   -3.3078    0.1438 O   0  0  0  0  0  0  0  0  0  0  0  0
   -0.9395    0.1121   -0.0492 C   0  0  0  0  0  0  0  0  0  0  0  0
   -2.2808   -0.3197    0.0786 C   0  0  0  0  0  0  0  0  0  0  0  0
  1  2  1  0
  2  3  1  0
  3  4  1  0
  4  5  1  0
  5  6  1  0
  6  7  2  0
  7  8  1  0
  8  9  2  0
  9 10  1  0
  9 11  1  0
 11 12  1  0
 12 13  2  0
 12 14  1  0
 14 15  1  0
 15 16  1  0
 16 17  1  0
 17 18  1  0
 18 19  1  0
 11 20  2  0
 20 21  1  0
 21 22  1  0
 22 23  1  0
 23 24  1  0
 21 25  2  0
 25 26  1  0
 26  5  2  0
 25  8  1  0
 19 14  1  0
M  END
