mol_2f50eb555050
     RDKit          3D

 26 30  0  0  0  0  0  0  0  0999 V2000
   -2.6225    1.6251   -3.0213 C   0  0  0  0  0  0  0  0  0  0  0  0
   -2.3230    0.9575   -1.6982 C   0  0  0  0  0  0  0  0  0  0  0  0
   -3.3543    0.6521   -0.7780 C   0  0  0  0  0  0  0  0  0  0  0  0
   -3.0234    0.1068    0.4861 C   0  0  0  0  0  0  0  0  0  0  0  0
   -1.6770   -0.2424    0.7806 C   0  0  0  0  0  0  0  0  0  0  0  0
   -0.6587    0.0051   -0.1670 C   0  0  0  0  0  0  0  0  0  0  0  0
   -0.9916    0.6184   -1.3732 C   0  0  0  0  0  0  0  0  0  0  0  0
    0.0423    0.9150   -2.2567 N   0  0  0  0  0  0  0  0  0  0  0  0
    1.3712    0.8140   -2.0075 C   0  0  0  0  0  0  0  0  0  0  0  0
    2.1455    1.2274   -2.8707 O   0  0  0  0  0  0  0  0  0  0  0  0
    1.7622    0.2721   -0.7937 N   0  0  0  0  0  0  0  0  0  0  0  0
    3.2250    0.1169   -0.5953 C   0  0  0  0  0  0  0  0  0  0  0  0
    3.6962   -1.3475   -0.5828 C   0  0  0  0  0  0  0  0  0  0  0  0
    5.2158   -1.4455   -0.4530 C   0  0  0  0  0  0  0  0  0  0  0  0
    5.7373   -0.6449    0.7371 C   0  0  0  0  0  0  0  0  0  0  0  0
    5.3059    0.8175    0.6643 C   0  0  0  0  0  0  0  0  0  0  0  0
    3.7863    0.9521    0.5671 C   0  0  0  0  0  0  0  0  0  0  0  0
    0.7763   -0.4746    0.0215 C   0  0  1  0  0  0  0  0  0  0  0  0
    1.0897   -0.5521    1.5215 C   0  0  0  0  0  0  0  0  0  0  0  0
    0.0646   -1.4070    2.2526 C   0  0  2  0  0  0  0  0  0  0  0  0
    0.0977   -2.7489    1.7606 O   0  0  0  0  0  0  0  0  0  0  0  0
   -1.3363   -0.8149    2.1448 C   0  0  0  0  0  0  0  0  0  0  0  0
   -4.1094   -0.1604    1.5163 C   0  0  0  0  0  0  0  0  0  0  0  0
   -5.4322    0.5434    1.2398 C   0  0  0  0  0  0  0  0  0  0  0  0
   -5.8311    0.3256   -0.2054 C   0  0  0  0  0  0  0  0  0  0  0  0
   -4.7987    0.9649   -1.1264 C   0  0  0  0  0  0  0  0  0  0  0  0
  1  2  1  0
  2  3  2  0
  3  4  1  0
  4  5  2  0
  5  6  1  0
  6  7  2  0
  7  8  1  0
  8  9  1  0
  9 10  2  0
  9 11  1  0
 11 12  1  0
 12 13  1  0
 13 14  1  0
 14 15  1  0
 15 16  1  0
 16 17  1  0
 11 18  1  0
 18 19  1  1
 19 20  1  0
 20 21  1  6
 20 22  1  0
  4 23  1  0
 23 24  1  0
 24 25  1  0
 25 26  1  0
  7  2  1  0
 17 12  1  0
 26  3  1  0
 22  5  1  0
 18  6  1  0
M  END
