mol_1aa4bba32f7c
     RDKit          3D

 25 27  0  0  0  0  0  0  0  0999 V2000
    4.7280   -0.1114   -2.7558 C   0  0  0  0  0  0  0  0  0  0  0  0
    4.3601    0.6485   -1.6034 O   0  0  0  0  0  0  0  0  0  0  0  0
    3.0976    0.3516   -1.1587 C   0  0  0  0  0  0  0  0  0  0  0  0
    2.0047    0.5970   -2.0050 C   0  0  0  0  0  0  0  0  0  0  0  0
    0.7060    0.4789   -1.5158 C   0  0  0  0  0  0  0  0  0  0  0  0
   -0.3799    0.7165   -2.3488 N   0  0  0  0  0  0  0  0  0  0  0  0
   -1.6840    0.6311   -1.9528 C   0  0  0  0  0  0  0  0  0  0  0  0
   -2.5605    0.8692   -2.7828 O   0  0  0  0  0  0  0  0  0  0  0  0
   -1.9202    0.2811   -0.6291 N   0  0  0  0  0  0  0  0  0  0  0  0
   -3.3236    0.1787   -0.1890 C   0  0  0  0  0  0  0  0  0  0  0  0
   -3.7115    1.2874    0.8119 C   0  0  0  0  0  0  0  0  0  0  0  0
   -4.8554    0.8839    1.7456 C   0  0  0  0  0  0  0  0  0  0  0  0
   -5.8488   -0.0423    1.0570 C   0  0  0  0  0  0  0  0  0  0  0  0
   -5.1963   -1.3456    0.5907 C   0  0  0  0  0  0  0  0  0  0  0  0
   -3.6928   -1.2209    0.3267 C   0  0  0  0  0  0  0  0  0  0  0  0
   -0.8998    0.0554    0.2987 C   0  0  0  0  0  0  0  0  0  0  0  0
   -1.0781   -0.2062    1.4862 O   0  0  0  0  0  0  0  0  0  0  0  0
    0.4891    0.1499   -0.1889 C   0  0  0  0  0  0  0  0  0  0  0  0
    1.5734   -0.0767    0.6672 C   0  0  0  0  0  0  0  0  0  0  0  0
    2.8883   -0.0045    0.1857 C   0  0  0  0  0  0  0  0  0  0  0  0
    3.9021   -0.2679    1.1287 N   0  0  0  0  0  0  0  0  0  0  0  0
    5.1907   -0.7189    0.8996 C   0  0  0  0  0  0  0  0  0  0  0  0
    5.6508   -1.1634   -0.1458 O   0  0  0  0  0  0  0  0  0  0  0  0
    6.0203   -0.7143    2.1888 C   0  0  0  0  0  0  0  0  0  0  0  0
    5.4949    0.1537    3.1876 O   0  0  0  0  0  0  0  0  0  0  0  0
  1  2  1  0
  2  3  1  0
  3  4  2  0
  4  5  1  0
  5  6  1  0
  6  7  1  0
  7  8  2  0
  7  9  1  0
  9 10  1  0
 10 11  1  0
 11 12  1  0
 12 13  1  0
 13 14  1  0
 14 15  1  0
  9 16  1  0
 16 17  2  0
 16 18  1  0
 18 19  1  0
 19 20  2  0
 20 21  1  0
 21 22  1  0
 22 23  2  0
 22 24  1  0
 24 25  1  0
 20  3  1  0
 18  5  2  0
 15 10  1  0
M  END
