mol_6c71b97ad6c8
     RDKit          3D

 30 34  0  0  0  0  0  0  0  0999 V2000
    5.2039   -2.4722   -0.5769 N   0  0  0  0  0  0  0  0  0  0  0  0
    5.1080   -1.5258    0.4045 C   0  0  0  0  0  0  0  0  0  0  0  0
    6.1864   -1.4132    1.1205 N   0  0  0  0  0  0  0  0  0  0  0  0
    6.2835   -0.4266    2.0684 C   0  0  0  0  0  0  0  0  0  0  0  0
    7.2549   -0.3864    2.8230 O   0  0  0  0  0  0  0  0  0  0  0  0
    5.2689    0.5371    2.1170 N   0  0  0  0  0  0  0  0  0  0  0  0
    5.3271    1.5870    3.0296 C   0  0  0  0  0  0  0  0  0  0  0  0
    4.3626    2.5072    3.1671 C   0  0  0  0  0  0  0  0  0  0  0  0
    3.2164    2.4743    2.2990 C   0  0  0  0  0  0  0  0  0  0  0  0
    3.1075    1.4827    1.3987 C   0  0  0  0  0  0  0  0  0  0  0  0
    4.1164    0.4261    1.3438 C   0  0  0  0  0  0  0  0  0  0  0  0
    3.8956   -0.6594    0.5829 C   0  0  0  0  0  0  0  0  0  0  0  0
    2.5790   -0.9293    0.0019 C   0  0  0  0  0  0  0  0  0  0  0  0
    2.1665   -2.1614   -0.3501 C   0  0  0  0  0  0  0  0  0  0  0  0
    0.8476   -2.3945   -0.8767 C   0  0  0  0  0  0  0  0  0  0  0  0
   -0.0271   -1.3897   -1.0192 C   0  0  0  0  0  0  0  0  0  0  0  0
   -1.4299   -1.5458   -1.5298 C   0  0  0  0  0  0  0  0  0  0  0  0
   -2.4395   -1.3988   -0.3886 C   0  0  0  0  0  0  0  0  0  0  0  0
   -2.1157   -1.6523    0.7754 O   0  0  0  0  0  0  0  0  0  0  0  0
   -3.7383   -1.0067   -0.7143 N   0  0  0  0  0  0  0  0  0  0  0  0
   -4.6488   -0.6740    0.3802 C   0  0  0  0  0  0  0  0  0  0  0  0
   -4.5111    0.7958    0.7662 C   0  0  0  0  0  0  0  0  0  0  0  0
   -5.2389    1.7965   -0.1356 C   0  0  0  0  0  0  0  0  0  0  0  0
   -5.4868    1.4245   -1.5979 C   0  0  0  0  0  0  0  0  0  0  0  0
   -4.3122    0.7787   -2.3318 C   0  0  0  0  0  0  0  0  0  0  0  0
   -4.2146   -0.7217   -2.0615 C   0  0  0  0  0  0  0  0  0  0  0  0
    0.3945   -0.0078   -0.6378 C   0  0  0  0  0  0  0  0  0  0  0  0
   -0.3689    0.9367   -0.8365 O   0  0  0  0  0  0  0  0  0  0  0  0
    1.6708    0.1297   -0.0871 N   0  0  0  0  0  0  0  0  0  0  0  0
    2.0404    1.4724    0.3413 C   0  0  0  0  0  0  0  0  0  0  0  0
  1  2  1  0
  2  3  2  0
  3  4  1  0
  4  5  2  0
  4  6  1  0
  6  7  1  0
  7  8  2  0
  8  9  1  0
  9 10  2  0
 10 11  1  0
 11 12  2  0
 12 13  1  0
 13 14  2  0
 14 15  1  0
 15 16  2  0
 16 17  1  0
 17 18  1  0
 18 19  2  0
 18 20  1  0
 20 21  1  0
 21 22  1  0
 22 23  1  0
 23 24  1  0
 24 25  1  0
 25 26  1  0
 16 27  1  0
 27 28  2  0
 27 29  1  0
 29 30  1  0
 12  2  1  0
 29 13  1  0
 11  6  1  0
 26 20  1  0
 30 10  1  0
M  END
