mol_41a03fdd1a2f
     RDKit          3D

 27 29  0  0  0  0  0  0  0  0999 V2000
    3.9622    2.0947   -0.2280 C   0  0  0  0  0  0  0  0  0  0  0  0
    4.4385    1.1561   -1.3220 C   0  0  0  0  0  0  0  0  0  0  0  0
    4.5718   -0.2602   -0.7927 C   0  0  0  0  0  0  0  0  0  0  0  0
    5.6280   -0.6137   -0.2646 O   0  0  0  0  0  0  0  0  0  0  0  0
    3.4732   -1.1026   -0.8951 N   0  0  0  0  0  0  0  0  0  0  0  0
    2.2143   -0.7392   -1.5445 C   0  0  0  0  0  0  0  0  0  0  0  0
    1.0984   -1.7478   -1.2708 C   0  0  0  0  0  0  0  0  0  0  0  0
    1.0855   -2.2086    0.1973 C   0  0  0  0  0  0  0  0  0  0  0  0
    0.6605   -1.0883    1.1722 C   0  0  0  0  0  0  0  0  0  0  0  0
   -0.6833   -0.6115    0.9447 N   0  0  0  0  0  0  0  0  0  0  0  0
   -1.0247    0.5816    0.2845 C   0  0  0  0  0  0  0  0  0  0  0  0
   -0.2534    1.3889   -0.2118 O   0  0  0  0  0  0  0  0  0  0  0  0
   -2.4291    0.6617    0.2771 N   0  0  0  0  0  0  0  0  0  0  0  0
   -3.2326    1.7580   -0.2493 C   0  0  2  0  0  0  0  0  0  0  0  0
   -2.8131    2.2762   -1.6366 C   0  0  0  0  0  0  0  0  0  0  0  0
   -1.6113    3.0333   -1.6759 O   0  0  0  0  0  0  0  0  0  0  0  0
   -3.4295    2.8201    0.8380 C   0  0  0  0  0  0  0  0  0  0  0  0
   -2.6518    4.1067    0.7770 C   0  0  0  0  0  0  0  0  0  0  0  0
   -4.1690    2.5962    1.8043 O   0  0  0  0  0  0  0  0  0  0  0  0
   -2.9391   -0.4529    0.9713 C   0  0  0  0  0  0  0  0  0  0  0  0
   -4.2380   -0.8041    1.2789 C   0  0  0  0  0  0  0  0  0  0  0  0
   -4.4341   -1.9919    1.9921 C   0  0  0  0  0  0  0  0  0  0  0  0
   -3.3432   -2.7922    2.3832 C   0  0  0  0  0  0  0  0  0  0  0  0
   -2.0323   -2.4181    2.0747 C   0  0  0  0  0  0  0  0  0  0  0  0
   -1.8585   -1.2443    1.3701 C   0  0  0  0  0  0  0  0  0  0  0  0
    2.4674   -2.7695    0.6078 C   0  0  0  0  0  0  0  0  0  0  0  0
    3.5754   -2.4701   -0.4022 C   0  0  0  0  0  0  0  0  0  0  0  0
  1  2  1  0
  2  3  1  0
  3  4  2  0
  3  5  1  0
  5  6  1  0
  6  7  1  0
  7  8  1  0
  8  9  1  0
  9 10  1  0
 10 11  1  0
 11 12  2  0
 11 13  1  0
 13 14  1  0
 14 15  1  6
 15 16  1  0
 14 17  1  0
 17 18  1  0
 17 19  2  0
 13 20  1  0
 20 21  2  0
 21 22  1  0
 22 23  2  0
 23 24  1  0
 24 25  2  0
  8 26  1  0
 26 27  1  0
 27  5  1  0
 25 10  1  0
 25 20  1  0
M  END
