mol_3a40c2ffa603
     RDKit          3D

 19 21  0  0  0  0  0  0  0  0999 V2000
    4.4388   -0.7523    0.2222 C   0  0  0  0  0  0  0  0  0  0  0  0
    3.1418    0.0173    0.1834 C   0  0  0  0  0  0  0  0  0  0  0  0
    3.0617    1.2403   -0.5001 C   0  0  0  0  0  0  0  0  0  0  0  0
    4.0981    1.7605   -1.2247 O   0  0  0  0  0  0  0  0  0  0  0  0
    1.9052    2.0047   -0.4790 C   0  0  0  0  0  0  0  0  0  0  0  0
    0.7818    1.5356    0.1906 C   0  0  0  0  0  0  0  0  0  0  0  0
    0.7906    0.3053    0.8721 C   0  0  0  0  0  0  0  0  0  0  0  0
    1.9775   -0.4816    0.8373 C   0  0  0  0  0  0  0  0  0  0  0  0
    2.0215   -1.8188    1.5432 C   0  0  0  0  0  0  0  0  0  0  0  0
   -0.4358   -0.0923    1.6759 C   0  0  0  0  0  0  0  0  0  0  0  0
   -1.6335   -0.2525    0.8502 N   0  0  0  0  0  0  0  0  0  0  0  0
   -1.9301   -1.5073    0.3455 C   0  0  0  0  0  0  0  0  0  0  0  0
   -1.2692   -2.5109    0.6157 O   0  0  0  0  0  0  0  0  0  0  0  0
   -3.1845   -1.6550   -0.4921 C   0  0  0  0  0  0  0  0  0  0  0  0
   -3.6342   -0.3836   -1.1819 C   0  0  0  0  0  0  0  0  0  0  0  0
   -3.6896    0.7384   -0.1638 C   0  0  0  0  0  0  0  0  0  0  0  0
   -2.3043    0.9893    0.4327 C   0  0  2  0  0  0  0  0  0  0  0  0
   -1.4081    1.7902   -0.5284 C   0  0  0  0  0  0  0  0  0  0  0  0
   -0.3076    2.3689    0.1908 O   0  0  0  0  0  0  0  0  0  0  0  0
  1  2  1  0
  2  3  1  0
  3  4  1  0
  3  5  2  0
  5  6  1  0
  6  7  2  0
  7  8  1  0
  8  9  1  0
  7 10  1  0
 10 11  1  0
 11 12  1  0
 12 13  2  0
 12 14  1  0
 14 15  1  0
 15 16  1  0
 17 16  1  6
 17 18  1  0
 18 19  1  0
  8  2  2  0
 17 11  1  0
 19  6  1  0
M  END
