mol_9975f43f1d9b
     RDKit          3D

 22 23  0  0  0  0  0  0  0  0999 V2000
   -6.0513    1.4674    0.4972 C   0  0  0  0  0  0  0  0  0  0  0  0
   -4.7418    1.2288   -0.2381 C   0  0  0  0  0  0  0  0  0  0  0  0
   -4.1995   -0.1786    0.0292 C   0  0  0  0  0  0  0  0  0  0  0  0
   -2.8810   -0.4177   -0.6886 C   0  0  0  0  0  0  0  0  0  0  0  0
   -2.9814   -0.7864   -2.0449 C   0  0  0  0  0  0  0  0  0  0  0  0
   -1.8527   -0.9219   -2.8426 C   0  0  0  0  0  0  0  0  0  0  0  0
   -1.9734   -1.3348   -4.2785 C   0  0  0  0  0  0  0  0  0  0  0  0
   -0.6026   -0.7116   -2.2620 C   0  0  0  0  0  0  0  0  0  0  0  0
   -0.4468   -0.3770   -0.8987 C   0  0  0  0  0  0  0  0  0  0  0  0
    0.9092   -0.1601   -0.5421 N   0  0  0  0  0  0  0  0  0  0  0  0
    1.5586   -0.2897    0.6698 C   0  0  0  0  0  0  0  0  0  0  0  0
    1.0962   -0.8320    1.6668 O   0  0  0  0  0  0  0  0  0  0  0  0
    3.0099    0.2614    0.6650 C   0  0  0  0  0  0  0  0  0  0  0  0
    2.9753    1.7469    0.2524 C   0  0  0  0  0  0  0  0  0  0  0  0
    3.6039    0.1288    2.0916 C   0  0  0  0  0  0  0  0  0  0  0  0
    5.1101    0.3747    2.1443 C   0  0  0  0  0  0  0  0  0  0  0  0
    5.8294   -0.4974    1.2171 N   0  0  0  0  0  0  0  0  0  0  0  0
    5.3738   -0.2998   -0.1552 C   0  0  0  0  0  0  0  0  0  0  0  0
    3.8769   -0.5692   -0.3087 C   0  0  0  0  0  0  0  0  0  0  0  0
   -1.5993   -0.2147   -0.0889 C   0  0  0  0  0  0  0  0  0  0  0  0
   -1.5373    0.2458    1.3544 C   0  0  0  0  0  0  0  0  0  0  0  0
   -1.7046   -0.8919    2.3595 C   0  0  0  0  0  0  0  0  0  0  0  0
  1  2  1  0
  2  3  1  0
  3  4  1  0
  4  5  1  0
  5  6  2  0
  6  7  1  0
  6  8  1  0
  8  9  2  0
  9 10  1  0
 10 11  1  0
 11 12  2  0
 11 13  1  0
 13 14  1  0
 13 15  1  0
 15 16  1  0
 16 17  1  0
 17 18  1  0
 18 19  1  0
  9 20  1  0
 20 21  1  0
 21 22  1  0
 20  4  2  0
 19 13  1  0
M  END
