mol_975876c9a185
     RDKit          3D

 30 34  0  0  0  0  0  0  0  0999 V2000
    5.5602    1.2721   -1.7052 O   0  0  0  0  0  0  0  0  0  0  0  0
    4.8876    0.8690   -0.7549 C   0  0  0  0  0  0  0  0  0  0  0  0
    3.4166    0.9940   -0.8752 C   0  0  0  0  0  0  0  0  0  0  0  0
    2.5670   -0.0503   -0.4917 C   0  0  0  0  0  0  0  0  0  0  0  0
    1.1727    0.0891   -0.5958 C   0  0  0  0  0  0  0  0  0  0  0  0
    0.3038   -0.9347   -0.1983 C   0  0  0  0  0  0  0  0  0  0  0  0
   -1.0840   -0.7821   -0.2987 C   0  0  0  0  0  0  0  0  0  0  0  0
   -1.6490    0.3945   -0.7941 C   0  0  0  0  0  0  0  0  0  0  0  0
   -3.1440    0.6386   -0.9522 C   0  0  1  0  0  0  0  0  0  0  0  0
   -3.5859    0.4156   -2.4118 C   0  0  0  0  0  0  0  0  0  0  0  0
   -3.6707   -1.0547   -2.8277 C   0  0  0  0  0  0  0  0  0  0  0  0
   -3.9752   -2.0402   -1.6998 C   0  0  0  0  0  0  0  0  0  0  0  0
   -4.7060   -1.4217   -0.5136 C   0  0  1  0  0  0  0  0  0  0  0  0
   -4.7124   -2.3123    0.7345 C   0  0  0  0  0  0  0  0  0  0  0  0
   -4.7975   -1.3312    1.8986 C   0  0  0  0  0  0  0  0  0  0  0  0
   -3.8565   -0.2018    1.4657 C   0  0  2  0  0  0  0  0  0  0  0  0
   -4.0449    1.0900    2.2553 C   0  0  0  0  0  0  0  0  0  0  0  0
   -3.7086    0.8925    3.6224 O   0  0  0  0  0  0  0  0  0  0  0  0
   -4.1758   -0.0515   -0.0328 C   0  0  1  0  0  0  0  0  0  0  0  0
   -0.7681    1.4169   -1.2032 C   0  0  0  0  0  0  0  0  0  0  0  0
    0.6285    1.2838   -1.1122 C   0  0  0  0  0  0  0  0  0  0  0  0
    1.4910    2.3068   -1.5372 C   0  0  0  0  0  0  0  0  0  0  0  0
    2.8713    2.1517   -1.4383 C   0  0  0  0  0  0  0  0  0  0  0  0
    3.6433    3.1739   -1.9237 O   0  0  0  0  0  0  0  0  0  0  0  0
    5.4561    0.3620    0.4057 N   0  0  0  0  0  0  0  0  0  0  0  0
    6.9013    0.1308    0.4311 C   0  0  0  0  0  0  0  0  0  0  0  0
    7.2839   -0.8487    1.5428 C   0  0  0  0  0  0  0  0  0  0  0  0
    6.8763   -0.4267    2.8533 O   0  0  0  0  0  0  0  0  0  0  0  0
    5.7550    0.4679    2.8577 C   0  0  0  0  0  0  0  0  0  0  0  0
    4.7790    0.2211    1.7018 C   0  0  0  0  0  0  0  0  0  0  0  0
  1  2  2  0
  2  3  1  0
  3  4  1  0
  4  5  2  0
  5  6  1  0
  6  7  2  0
  7  8  1  0
  9  8  1  6
  9 10  1  0
 10 11  1  0
 11 12  1  0
 13 12  1  6
 13 14  1  0
 14 15  1  0
 15 16  1  0
 16 17  1  1
 17 18  1  0
 19 16  1  1
  8 20  2  0
 20 21  1  0
 21 22  2  0
 22 23  1  0
 23 24  1  0
  2 25  1  0
 25 26  1  0
 26 27  1  0
 27 28  1  0
 28 29  1  0
 29 30  1  0
 23  3  2  0
 30 25  1  0
 21  5  1  0
 19  9  1  0
 19 13  1  0
M  END
