mol_53820c7cc14c
     RDKit          3D

 24 26  0  0  0  0  0  0  0  0999 V2000
    4.6357    0.7123    0.0040 C   0  0  0  0  0  0  0  0  0  0  0  0
    3.2319    1.0063   -0.4434 C   0  0  0  0  0  0  0  0  0  0  0  0
    2.6611    2.2769   -0.2596 C   0  0  0  0  0  0  0  0  0  0  0  0
    3.3569    3.3111    0.3041 O   0  0  0  0  0  0  0  0  0  0  0  0
    1.3158    2.5191   -0.5337 C   0  0  0  0  0  0  0  0  0  0  0  0
    0.5444    1.5060   -1.0852 C   0  0  0  0  0  0  0  0  0  0  0  0
    1.1504    0.3230   -1.4910 C   0  0  0  0  0  0  0  0  0  0  0  0
    2.4099   -0.0068   -0.9775 C   0  0  0  0  0  0  0  0  0  0  0  0
    2.6548   -1.4903   -0.7585 C   0  0  0  0  0  0  0  0  0  0  0  0
    1.8065   -2.0285    0.4364 C   0  0  0  0  0  0  0  0  0  0  0  0
    0.3496   -2.1082    0.1789 N   0  0  0  0  0  0  0  0  0  0  0  0
   -0.0970   -3.1626   -0.7209 C   0  0  0  0  0  0  0  0  0  0  0  0
   -0.5041   -1.1398    0.7424 C   0  0  0  0  0  0  0  0  0  0  0  0
   -0.1128   -0.2868    1.5305 O   0  0  0  0  0  0  0  0  0  0  0  0
   -1.8202   -1.2393    0.3272 N   0  0  0  0  0  0  0  0  0  0  0  0
   -2.8610   -0.2815    0.4998 C   0  0  0  0  0  0  0  0  0  0  0  0
   -4.1383   -0.8487    0.6806 C   0  0  0  0  0  0  0  0  0  0  0  0
   -5.2642   -0.0575    0.9243 C   0  0  0  0  0  0  0  0  0  0  0  0
   -5.1422    1.3240    0.9801 C   0  0  0  0  0  0  0  0  0  0  0  0
   -3.8994    1.9134    0.7597 C   0  0  0  0  0  0  0  0  0  0  0  0
   -2.7578    1.1305    0.4921 C   0  0  0  0  0  0  0  0  0  0  0  0
   -1.5539    1.9281    0.1064 C   0  0  0  0  0  0  0  0  0  0  0  0
   -1.3017    2.9635    0.7126 O   0  0  0  0  0  0  0  0  0  0  0  0
   -0.8595    1.4185   -0.9759 N   0  0  0  0  0  0  0  0  0  0  0  0
  1  2  1  0
  2  3  2  0
  3  4  1  0
  3  5  1  0
  5  6  2  0
  6  7  1  0
  7  8  2  0
  8  9  1  0
  9 10  1  0
 10 11  1  0
 11 12  1  0
 11 13  1  0
 13 14  2  0
 13 15  1  0
 15 16  1  0
 16 17  2  0
 17 18  1  0
 18 19  2  0
 19 20  1  0
 20 21  2  0
 21 22  1  0
 22 23  2  0
 22 24  1  0
  8  2  1  0
 21 16  1  0
 24  6  1  0
M  END
