mol_1ac202bfc770
     RDKit          3D

 21 22  0  0  0  0  0  0  0  0999 V2000
   -4.4110   -2.5149   -0.4644 C   0  0  0  0  0  0  0  0  0  0  0  0
   -3.4249   -1.4671   -0.5222 N   0  0  0  0  0  0  0  0  0  0  0  0
   -2.4399   -1.3644    0.4368 C   0  0  0  0  0  0  0  0  0  0  0  0
   -2.3222   -2.1231    1.3890 O   0  0  0  0  0  0  0  0  0  0  0  0
   -1.4936   -0.2390    0.2348 C   0  0  0  0  0  0  0  0  0  0  0  0
   -2.0469    1.0512    0.1856 C   0  0  0  0  0  0  0  0  0  0  0  0
   -1.2216    2.1462   -0.0194 C   0  0  0  0  0  0  0  0  0  0  0  0
   -1.6191    3.4515   -0.1005 O   0  0  0  0  0  0  0  0  0  0  0  0
   -2.9957    3.7250    0.1321 C   0  0  0  0  0  0  0  0  0  0  0  0
    0.1526    1.9433   -0.1687 C   0  0  0  0  0  0  0  0  0  0  0  0
    0.7399    0.6586   -0.0985 C   0  0  0  0  0  0  0  0  0  0  0  0
    2.1333    0.4501   -0.2362 C   0  0  0  0  0  0  0  0  0  0  0  0
    2.9910    1.5129   -0.3829 O   0  0  0  0  0  0  0  0  0  0  0  0
    2.7100   -0.8253   -0.2155 C   0  0  0  0  0  0  0  0  0  0  0  0
    4.2005   -1.0139   -0.3683 C   0  0  0  0  0  0  0  0  0  0  0  0
    5.0038   -0.5235    0.8125 C   0  0  0  0  0  0  0  0  0  0  0  0
    4.6037   -0.0703    1.8722 O   0  0  0  0  0  0  0  0  0  0  0  0
    6.3331   -0.6563    0.6014 O   0  0  0  0  0  0  0  0  0  0  0  0
    1.8742   -1.9250   -0.0251 C   0  0  0  0  0  0  0  0  0  0  0  0
    0.4977   -1.7460    0.1330 C   0  0  0  0  0  0  0  0  0  0  0  0
   -0.0991   -0.4633    0.1001 C   0  0  0  0  0  0  0  0  0  0  0  0
  1  2  1  0
  2  3  1  0
  3  4  2  0
  3  5  1  0
  5  6  1  0
  6  7  2  0
  7  8  1  0
  8  9  1  0
  7 10  1  0
 10 11  2  0
 11 12  1  0
 12 13  1  0
 12 14  2  0
 14 15  1  0
 15 16  1  0
 16 17  2  0
 16 18  1  0
 14 19  1  0
 19 20  2  0
 20 21  1  0
 21  5  2  0
 21 11  1  0
M  END
