mol_018b85e87554
     RDKit          3D

 23 25  0  0  0  0  0  0  0  0999 V2000
   -2.7183   -2.7355    1.9697 C   0  0  0  0  0  0  0  0  0  0  0  0
   -2.1900   -1.5756    1.3395 O   0  0  0  0  0  0  0  0  0  0  0  0
   -3.0627   -0.6974    0.7403 C   0  0  0  0  0  0  0  0  0  0  0  0
   -4.4442   -0.9348    0.7055 C   0  0  0  0  0  0  0  0  0  0  0  0
   -5.2967   -0.0027    0.1424 C   0  0  0  0  0  0  0  0  0  0  0  0
   -6.6313   -0.2839    0.1353 O   0  0  0  0  0  0  0  0  0  0  0  0
   -4.8028    1.1798   -0.3809 C   0  0  0  0  0  0  0  0  0  0  0  0
   -3.4259    1.4440   -0.3638 C   0  0  0  0  0  0  0  0  0  0  0  0
   -2.9902    2.6722   -0.8805 C   0  0  0  0  0  0  0  0  0  0  0  0
   -1.6475    3.0166   -0.8753 C   0  0  0  0  0  0  0  0  0  0  0  0
   -0.7150    2.1170   -0.3830 C   0  0  0  0  0  0  0  0  0  0  0  0
   -1.0986    0.8467    0.0999 C   0  0  0  0  0  0  0  0  0  0  0  0
   -0.0074   -0.1073    0.5881 C   0  0  0  0  0  0  0  0  0  0  0  0
    1.3687    0.1960    0.1164 N   0  0  0  0  0  0  0  0  0  0  0  0
    1.5476   -0.2299   -1.2831 C   0  0  0  0  0  0  0  0  0  0  0  0
    2.9397    0.1439   -1.7877 C   0  0  0  0  0  0  0  0  0  0  0  0
    4.0320   -0.4691   -0.9075 C   0  0  0  0  0  0  0  0  0  0  0  0
    5.4140   -0.0140   -1.3507 C   0  0  0  0  0  0  0  0  0  0  0  0
    6.4555   -0.6448   -0.7347 N   0  0  0  0  0  0  0  0  0  0  0  0
    5.6279    0.8327   -2.2100 O   0  0  0  0  0  0  0  0  0  0  0  0
    3.7819   -0.1084    0.5597 C   0  0  0  0  0  0  0  0  0  0  0  0
    2.3555   -0.4574    0.9849 C   0  0  0  0  0  0  0  0  0  0  0  0
   -2.4990    0.4995    0.1719 C   0  0  0  0  0  0  0  0  0  0  0  0
  1  2  1  0
  2  3  1  0
  3  4  2  0
  4  5  1  0
  5  6  1  0
  5  7  2  0
  7  8  1  0
  8  9  2  0
  9 10  1  0
 10 11  2  0
 11 12  1  0
 12 13  1  0
 13 14  1  0
 14 15  1  0
 15 16  1  0
 16 17  1  0
 17 18  1  0
 18 19  1  0
 18 20  2  0
 17 21  1  0
 21 22  1  0
 12 23  2  0
 23  3  1  0
 23  8  1  0
 22 14  1  0
M  END
