mol_74fd77ff2eaa
     RDKit          3D

 28 31  0  0  0  0  0  0  0  0999 V2000
   -5.2916    2.2973   -0.7986 C   0  0  0  0  0  0  0  0  0  0  0  0
   -3.8704    1.8242   -1.0394 C   0  0  0  0  0  0  0  0  0  0  0  0
   -3.2373    1.6620    0.2347 O   0  0  0  0  0  0  0  0  0  0  0  0
   -1.9480    1.1779    0.0876 C   0  0  0  0  0  0  0  0  0  0  0  0
   -0.8879    2.1811   -0.1123 C   0  0  0  0  0  0  0  0  0  0  0  0
   -1.3607    3.4721   -0.2315 O   0  0  0  0  0  0  0  0  0  0  0  0
   -0.4148    4.5257   -0.3492 C   0  0  0  0  0  0  0  0  0  0  0  0
    0.4112    1.8080   -0.1415 C   0  0  0  0  0  0  0  0  0  0  0  0
    0.8023    0.4003   -0.0024 C   0  0  0  0  0  0  0  0  0  0  0  0
   -0.2844   -0.5955    0.1480 C   0  0  0  0  0  0  0  0  0  0  0  0
   -1.6693   -0.1317    0.2688 C   0  0  0  0  0  0  0  0  0  0  0  0
   -2.6976   -1.1605    0.6603 C   0  0  0  0  0  0  0  0  0  0  0  0
   -2.4794   -2.5230   -0.0151 C   0  0  0  0  0  0  0  0  0  0  0  0
   -2.7357   -2.4565   -1.5291 C   0  0  0  0  0  0  0  0  0  0  0  0
   -3.4375   -3.5498    0.6101 C   0  0  0  0  0  0  0  0  0  0  0  0
   -1.0317   -2.9563    0.2184 C   0  0  0  0  0  0  0  0  0  0  0  0
   -0.7055   -4.1385    0.3567 O   0  0  0  0  0  0  0  0  0  0  0  0
    0.0440   -1.9004    0.1799 C   0  0  0  0  0  0  0  0  0  0  0  0
    1.3521   -2.3349    0.1438 N   0  0  0  0  0  0  0  0  0  0  0  0
    2.5022   -1.4725    0.0379 C   0  0  2  0  0  0  0  0  0  0  0  0
    3.4418   -1.7135    1.2237 C   0  0  0  0  0  0  0  0  0  0  0  0
    4.5574   -0.6669    1.3469 C   0  0  0  0  0  0  0  0  0  0  0  0
    4.6407    0.2665    0.1337 C   0  0  2  0  0  0  0  0  0  0  0  0
    5.7160    1.3160    0.3190 C   0  0  0  0  0  0  0  0  0  0  0  0
    5.5850    2.5252    0.2330 O   0  0  0  0  0  0  0  0  0  0  0  0
    6.9298    0.7801    0.5522 O   0  0  0  0  0  0  0  0  0  0  0  0
    3.2799    0.9422   -0.1215 C   0  0  0  0  0  0  0  0  0  0  0  0
    2.0975   -0.0083   -0.0360 C   0  0  0  0  0  0  0  0  0  0  0  0
  1  2  1  0
  2  3  1  0
  3  4  1  0
  4  5  1  0
  5  6  1  0
  6  7  1  0
  5  8  2  0
  8  9  1  0
  9 10  1  0
 10 11  1  0
 11 12  1  0
 12 13  1  0
 13 14  1  0
 13 15  1  0
 13 16  1  0
 16 17  2  0
 16 18  1  0
 18 19  1  0
 19 20  1  0
 20 21  1  1
 21 22  1  0
 22 23  1  0
 23 24  1  1
 24 25  2  0
 24 26  1  0
 23 27  1  0
 27 28  1  0
 11  4  2  0
 28 20  1  0
 28  9  2  0
 18 10  2  0
M  END
