mol_9ffa49c32eea
     RDKit          3D

 24 26  0  0  0  0  0  0  0  0999 V2000
    4.5341    0.1615   -3.1688 C   0  0  0  0  0  0  0  0  0  0  0  0
    3.7630    0.5202   -1.9073 C   0  0  0  0  0  0  0  0  0  0  0  0
    4.5792    0.2183   -0.6513 C   0  0  0  0  0  0  0  0  0  0  0  0
    3.8680    0.5836    0.6599 C   0  0  0  0  0  0  0  0  0  0  0  0
    2.6897   -0.2401    0.9438 N   0  0  0  0  0  0  0  0  0  0  0  0
    2.9288   -1.5374    1.3996 C   0  0  0  0  0  0  0  0  0  0  0  0
    4.0530   -1.9863    1.6277 O   0  0  0  0  0  0  0  0  0  0  0  0
    1.7227   -2.4320    1.5069 C   0  0  0  0  0  0  0  0  0  0  0  0
    0.5665   -1.6958    2.1648 C   0  0  2  0  0  0  0  0  0  0  0  0
   -0.6104   -2.6643    2.3277 C   0  0  0  0  0  0  0  0  0  0  0  0
    0.2768   -0.4394    1.3640 C   0  0  0  0  0  0  0  0  0  0  0  0
   -1.0302    0.0751    1.2492 C   0  0  0  0  0  0  0  0  0  0  0  0
   -1.2778    1.2559    0.5458 C   0  0  0  0  0  0  0  0  0  0  0  0
   -2.6475    1.7954    0.4011 C   0  0  0  0  0  0  0  0  0  0  0  0
   -2.8003    2.9923    0.6473 O   0  0  0  0  0  0  0  0  0  0  0  0
   -3.6645    0.9845   -0.0668 N   0  0  0  0  0  0  0  0  0  0  0  0
   -3.5496   -0.3367   -0.6747 C   0  0  0  0  0  0  0  0  0  0  0  0
   -4.9806   -0.7278   -1.0197 C   0  0  0  0  0  0  0  0  0  0  0  0
   -5.6524    0.6138   -1.2723 C   0  0  0  0  0  0  0  0  0  0  0  0
   -5.0096    1.5144   -0.2287 C   0  0  0  0  0  0  0  0  0  0  0  0
   -0.2009    1.9827    0.0428 C   0  0  0  0  0  0  0  0  0  0  0  0
   -0.3502    3.2024   -0.5635 O   0  0  0  0  0  0  0  0  0  0  0  0
    1.0996    1.4932    0.1553 C   0  0  0  0  0  0  0  0  0  0  0  0
    1.3607    0.2758    0.8029 C   0  0  0  0  0  0  0  0  0  0  0  0
  1  2  1  0
  2  3  1  0
  3  4  1  0
  4  5  1  0
  5  6  1  0
  6  7  2  0
  6  8  1  0
  8  9  1  0
  9 10  1  6
  9 11  1  0
 11 12  1  0
 12 13  2  0
 13 14  1  0
 14 15  2  0
 14 16  1  0
 16 17  1  0
 17 18  1  0
 18 19  1  0
 19 20  1  0
 13 21  1  0
 21 22  1  0
 21 23  2  0
 23 24  1  0
 24  5  1  0
 24 11  2  0
 20 16  1  0
M  END
