mol_f76698aab740
     RDKit          3D

 27 31  0  0  0  0  0  0  0  0999 V2000
   -1.6878    3.1169    0.2723 C   0  0  0  0  0  0  0  0  0  0  0  0
   -1.8193    1.5932    0.0823 C   0  0  0  0  0  0  0  0  0  0  0  0
   -1.5778    1.2906   -1.4105 C   0  0  0  0  0  0  0  0  0  0  0  0
   -3.2443    1.1827    0.5111 C   0  0  0  0  0  0  0  0  0  0  0  0
   -3.5552   -0.3174    0.4771 C   0  0  0  0  0  0  0  0  0  0  0  0
   -2.7167   -1.1454    1.4529 C   0  0  0  0  0  0  0  0  0  0  0  0
   -1.6485   -1.8950    0.7956 N   0  0  0  0  0  0  0  0  0  0  0  0
   -1.8929   -3.2676    0.5357 C   0  0  0  0  0  0  0  0  0  0  0  0
   -2.9618   -3.8339    0.7678 O   0  0  0  0  0  0  0  0  0  0  0  0
   -0.8521   -4.0009   -0.0107 N   0  0  0  0  0  0  0  0  0  0  0  0
    0.3507   -3.4684   -0.3029 C   0  0  0  0  0  0  0  0  0  0  0  0
    0.5547   -2.1721   -0.0741 C   0  0  0  0  0  0  0  0  0  0  0  0
   -0.4329   -1.2841    0.4655 C   0  0  0  0  0  0  0  0  0  0  0  0
   -0.0672    0.0183    0.5669 C   0  0  0  0  0  0  0  0  0  0  0  0
   -0.8855    1.0224    1.0218 O   0  0  0  0  0  0  0  0  0  0  0  0
    1.3114    0.4395    0.2198 C   0  0  0  0  0  0  0  0  0  0  0  0
    2.2132   -0.4549   -0.2658 C   0  0  0  0  0  0  0  0  0  0  0  0
    3.6066   -0.0185   -0.6264 C   0  0  0  0  0  0  0  0  0  0  0  0
    3.8334    1.4435   -0.3944 C   0  0  0  0  0  0  0  0  0  0  0  0
    2.8681    2.2452    0.0898 C   0  0  0  0  0  0  0  0  0  0  0  0
    3.1683    3.6839    0.2903 C   0  0  0  0  0  0  0  0  0  0  0  0
    4.2325    4.2394    0.0763 O   0  0  0  0  0  0  0  0  0  0  0  0
    2.1068    4.3691    0.7505 O   0  0  0  0  0  0  0  0  0  0  0  0
    1.5996    1.7816    0.4089 O   0  0  0  0  0  0  0  0  0  0  0  0
    1.8361   -1.7811   -0.4275 N   0  0  0  0  0  0  0  0  0  0  0  0
    2.5510   -2.9618   -0.9301 C   0  0  0  0  0  0  0  0  0  0  0  0
    1.5068   -3.9945   -0.8241 N   0  0  0  0  0  0  0  0  0  0  0  0
  1  2  1  0
  2  3  1  0
  2  4  1  0
  4  5  1  0
  5  6  1  0
  6  7  1  0
  7  8  1  0
  8  9  2  0
  8 10  1  0
 10 11  1  0
 11 12  2  0
 12 13  1  0
 13 14  2  0
 14 15  1  0
 14 16  1  0
 16 17  2  0
 17 18  1  0
 18 19  1  0
 19 20  2  0
 20 21  1  0
 21 22  2  0
 21 23  1  0
 20 24  1  0
 17 25  1  0
 25 26  1  0
 26 27  1  0
 15  2  1  0
 24 16  1  0
 13  7  1  0
 27 11  1  0
 25 12  1  0
M  END
