mol_a3f22c49a01d
     RDKit          3D

 29 33  0  0  0  0  0  0  0  0999 V2000
   -6.8277    3.8494    0.4197 C   0  0  0  0  0  0  0  0  0  0  0  0
   -5.9252    2.6606    0.5070 C   0  0  0  0  0  0  0  0  0  0  0  0
   -5.9582    1.6380   -0.3623 C   0  0  0  0  0  0  0  0  0  0  0  0
   -5.0861    0.4595   -0.2886 C   0  0  0  0  0  0  0  0  0  0  0  0
   -5.5553   -0.7805   -0.7077 C   0  0  0  0  0  0  0  0  0  0  0  0
   -4.8232   -1.9195   -0.7103 N   0  0  0  0  0  0  0  0  0  0  0  0
   -3.5375   -1.8409   -0.2842 C   0  0  0  0  0  0  0  0  0  0  0  0
   -2.9675   -0.6397    0.1489 C   0  0  0  0  0  0  0  0  0  0  0  0
   -3.7566    0.5182    0.1341 C   0  0  0  0  0  0  0  0  0  0  0  0
   -1.5795   -0.6625    0.5826 C   0  0  0  0  0  0  0  0  0  0  0  0
   -0.8229    0.3087    1.1097 C   0  0  0  0  0  0  0  0  0  0  0  0
    0.5525   -0.2060    1.4488 C   0  0  2  0  0  0  0  0  0  0  0  0
    1.6605    0.6340    0.8135 C   0  0  0  0  0  0  0  0  0  0  0  0
    3.0010   -0.1142    0.8602 C   0  0  2  0  0  0  0  0  0  0  0  0
    4.0992    0.6914    0.3049 N   0  0  0  0  0  0  0  0  0  0  0  0
    5.0560    1.3129    1.2104 C   0  0  0  0  0  0  0  0  0  0  0  0
    6.4816    1.1895    0.6836 C   0  0  0  0  0  0  0  0  0  0  0  0
    6.5860    1.4341   -0.8225 C   0  0  0  0  0  0  0  0  0  0  0  0
    5.2852    1.9367   -1.4319 C   0  0  0  0  0  0  0  0  0  0  0  0
    4.1311    1.0340   -1.0458 C   0  0  0  0  0  0  0  0  0  0  0  0
    3.2901    0.6814   -1.8672 O   0  0  0  0  0  0  0  0  0  0  0  0
    2.9279   -1.5237    0.2357 C   0  0  0  0  0  0  0  0  0  0  0  0
    1.5157   -1.9319   -0.1810 C   0  0  0  0  0  0  0  0  0  0  0  0
    0.5024   -1.6674    0.9386 C   0  0  2  0  0  0  0  0  0  0  0  0
   -0.8879   -1.8414    0.4976 N   0  0  0  0  0  0  0  0  0  0  0  0
   -1.4278   -3.0527    0.1141 C   0  0  0  0  0  0  0  0  0  0  0  0
   -0.7577   -4.0870    0.1360 O   0  0  0  0  0  0  0  0  0  0  0  0
   -2.7591   -3.0277   -0.2826 N   0  0  0  0  0  0  0  0  0  0  0  0
   -3.4057   -4.2502   -0.7238 C   0  0  0  0  0  0  0  0  0  0  0  0
  1  2  1  0
  2  3  2  3
  3  4  1  0
  4  5  1  0
  5  6  2  0
  6  7  1  0
  7  8  2  0
  8  9  1  0
  8 10  1  0
 10 11  2  0
 11 12  1  0
 12 13  1  6
 13 14  1  0
 14 15  1  6
 15 16  1  0
 16 17  1  0
 17 18  1  0
 18 19  1  0
 19 20  1  0
 20 21  2  0
 14 22  1  0
 22 23  1  0
 24 23  1  6
 24 25  1  0
 25 26  1  0
 26 27  2  0
 26 28  1  0
 28 29  1  0
  9  4  2  0
 25 10  1  0
 28  7  1  0
 24 12  1  0
 20 15  1  0
M  END
