mol_750a8d50017d
     RDKit          3D

 26 28  0  0  0  0  0  0  0  0999 V2000
   -4.9447    1.1676    1.5070 C   0  0  0  0  0  0  0  0  0  0  0  0
   -6.0089    0.4123    0.7228 C   0  0  0  0  0  0  0  0  0  0  0  0
   -5.5315   -0.0423   -0.6595 C   0  0  0  0  0  0  0  0  0  0  0  0
   -4.4649   -1.1097   -0.6111 C   0  0  0  0  0  0  0  0  0  0  0  0
   -4.7979   -2.4306   -0.2900 C   0  0  0  0  0  0  0  0  0  0  0  0
   -3.8094   -3.4105   -0.2391 C   0  0  0  0  0  0  0  0  0  0  0  0
   -2.4804   -3.0768   -0.5059 C   0  0  0  0  0  0  0  0  0  0  0  0
   -2.1254   -1.7609   -0.8254 C   0  0  0  0  0  0  0  0  0  0  0  0
   -0.7617   -1.5055   -1.0758 N   0  0  0  0  0  0  0  0  0  0  0  0
   -0.1769   -0.2917   -1.3758 C   0  0  0  0  0  0  0  0  0  0  0  0
   -0.7069    0.8070   -1.4636 O   0  0  0  0  0  0  0  0  0  0  0  0
    1.2906   -0.3786   -1.5815 C   0  0  0  0  0  0  0  0  0  0  0  0
    1.7322   -1.1636   -2.6561 C   0  0  0  0  0  0  0  0  0  0  0  0
    3.0894   -1.2699   -2.9176 C   0  0  0  0  0  0  0  0  0  0  0  0
    3.9972   -0.5814   -2.1172 C   0  0  0  0  0  0  0  0  0  0  0  0
    3.5766    0.2318   -1.0400 C   0  0  0  0  0  0  0  0  0  0  0  0
    2.1958    0.3205   -0.7451 C   0  0  0  0  0  0  0  0  0  0  0  0
    1.6638    1.1634    0.3937 C   0  0  0  0  0  0  0  0  0  0  0  0
    2.3606    0.9247    1.6512 N   0  0  0  0  0  0  0  0  0  0  0  0
    1.6422    0.1987    2.6842 C   0  0  0  0  0  0  0  0  0  0  0  0
    3.6224    1.4285    1.9132 C   0  0  0  0  0  0  0  0  0  0  0  0
    4.1463    1.3585    3.0242 O   0  0  0  0  0  0  0  0  0  0  0  0
    4.3490    2.0347    0.7185 C   0  0  1  0  0  0  0  0  0  0  0  0
    5.6284    2.7439    1.1747 C   0  0  0  0  0  0  0  0  0  0  0  0
    4.6943    0.9118   -0.2657 C   0  0  0  0  0  0  0  0  0  0  0  0
   -3.1236   -0.7854   -0.8779 C   0  0  0  0  0  0  0  0  0  0  0  0
  1  2  1  0
  2  3  1  0
  3  4  1  0
  4  5  1  0
  5  6  2  0
  6  7  1  0
  7  8  2  0
  8  9  1  0
  9 10  1  0
 10 11  2  0
 10 12  1  0
 12 13  2  0
 13 14  1  0
 14 15  2  0
 15 16  1  0
 16 17  2  0
 17 18  1  0
 18 19  1  0
 19 20  1  0
 19 21  1  0
 21 22  2  0
 21 23  1  0
 23 24  1  1
 23 25  1  0
  8 26  1  0
 26  4  2  0
 17 12  1  0
 25 16  1  0
M  END
