mol_075aa8bd1c30
     RDKit          3D

 26 29  0  0  0  0  0  0  0  0999 V2000
    5.3768   -0.2383   -0.1330 C   0  0  0  0  0  0  0  0  0  0  0  0
    4.5381    0.9991   -0.4199 C   0  0  0  0  0  0  0  0  0  0  0  0
    3.4647    0.7747   -1.4919 C   0  0  0  0  0  0  0  0  0  0  0  0
    2.3378   -0.1514   -1.0574 C   0  0  0  0  0  0  0  0  0  0  0  0
    2.3633   -1.4853   -1.4899 C   0  0  0  0  0  0  0  0  0  0  0  0
    3.3889   -1.9155   -2.2851 O   0  0  0  0  0  0  0  0  0  0  0  0
    1.3698   -2.3752   -1.1235 C   0  0  0  0  0  0  0  0  0  0  0  0
    0.3292   -1.9427   -0.3048 C   0  0  0  0  0  0  0  0  0  0  0  0
    0.2395   -0.6164    0.1772 C   0  0  0  0  0  0  0  0  0  0  0  0
   -0.8293   -0.1743    1.0312 C   0  0  0  0  0  0  0  0  0  0  0  0
   -1.9154   -1.1469    1.4569 C   0  0  0  0  0  0  0  0  0  0  0  0
   -2.9485   -1.3235    0.4520 N   0  0  0  0  0  0  0  0  0  0  0  0
   -3.8123   -0.2617   -0.0044 C   0  0  0  0  0  0  0  0  0  0  0  0
   -4.5075   -0.8703   -1.2069 C   0  0  0  0  0  0  0  0  0  0  0  0
   -4.5807   -2.3541   -0.8741 C   0  0  0  0  0  0  0  0  0  0  0  0
   -3.3729   -2.5659    0.0042 C   0  0  0  0  0  0  0  0  0  0  0  0
   -2.8947   -3.6482    0.3008 O   0  0  0  0  0  0  0  0  0  0  0  0
   -0.8693    1.1775    1.4355 C   0  0  0  0  0  0  0  0  0  0  0  0
    0.1189    2.0721    1.0364 C   0  0  0  0  0  0  0  0  0  0  0  0
    1.1738    1.6232    0.2372 C   0  0  0  0  0  0  0  0  0  0  0  0
    1.2653    0.2925   -0.2192 C   0  0  0  0  0  0  0  0  0  0  0  0
    0.0779    3.4994    1.5044 C   0  0  0  0  0  0  0  0  0  0  0  0
   -1.3083    3.9429    1.9210 C   0  0  0  0  0  0  0  0  0  0  0  0
   -1.6431    5.1184    1.7971 O   0  0  0  0  0  0  0  0  0  0  0  0
   -2.1298    3.0107    2.5109 N   0  0  0  0  0  0  0  0  0  0  0  0
   -1.9359    1.7490    2.2836 C   0  0  0  0  0  0  0  0  0  0  0  0
  1  2  1  0
  2  3  1  0
  3  4  1  0
  4  5  2  0
  5  6  1  0
  5  7  1  0
  7  8  2  0
  8  9  1  0
  9 10  2  0
 10 11  1  0
 11 12  1  0
 12 13  1  0
 13 14  1  0
 14 15  1  0
 15 16  1  0
 16 17  2  0
 10 18  1  0
 18 19  2  0
 19 20  1  0
 20 21  2  0
 19 22  1  0
 22 23  1  0
 23 24  2  0
 23 25  1  0
 25 26  2  0
 21  4  1  0
 21  9  1  0
 16 12  1  0
 26 18  1  0
M  END
