mol_778261dcdef8
     RDKit          3D

 22 22  0  0  0  0  0  0  0  0999 V2000
   -1.6639    3.9157   -1.7334 C   0  0  0  0  0  0  0  0  0  0  0  0
   -1.1000    2.5996   -1.4708 N   0  0  0  0  0  0  0  0  0  0  0  0
   -2.0289    1.4656   -1.4960 C   0  0  0  0  0  0  0  0  0  0  0  0
   -2.7473    1.2884   -0.1546 C   0  0  0  0  0  0  0  0  0  0  0  0
   -3.7276    0.0991   -0.1353 C   0  0  1  0  0  0  0  0  0  0  0  0
   -3.0025   -1.2521   -0.2544 C   0  0  0  0  0  0  0  0  0  0  0  0
   -3.9667   -2.4347   -0.1394 C   0  0  0  0  0  0  0  0  0  0  0  0
   -4.8064   -2.3755    1.1347 C   0  0  1  0  0  0  0  0  0  0  0  0
   -3.9686   -2.5473    2.2749 O   0  0  0  0  0  0  0  0  0  0  0  0
   -5.5305   -1.0373    1.2570 C   0  0  0  0  0  0  0  0  0  0  0  0
   -4.5688    0.1468    1.1524 C   0  0  0  0  0  0  0  0  0  0  0  0
    0.2478    2.4988   -1.1376 C   0  0  0  0  0  0  0  0  0  0  0  0
    0.9930    3.4827   -1.0781 O   0  0  0  0  0  0  0  0  0  0  0  0
    0.8040    1.0980   -0.8524 C   0  0  0  0  0  0  0  0  0  0  0  0
    2.1852    1.1878   -0.4227 N   0  0  0  0  0  0  0  0  0  0  0  0
    2.9078    0.0696   -0.0838 C   0  0  0  0  0  0  0  0  0  0  0  0
    2.4278   -1.0565   -0.1257 O   0  0  0  0  0  0  0  0  0  0  0  0
    4.3337    0.3996    0.3346 C   0  0  0  0  0  0  0  0  0  0  0  0
    5.2473   -0.7780    0.7486 C   0  0  0  0  0  0  0  0  0  0  0  0
    5.4535   -1.7658   -0.4118 C   0  0  0  0  0  0  0  0  0  0  0  0
    4.6908   -1.5177    1.9765 C   0  0  0  0  0  0  0  0  0  0  0  0
    6.6250   -0.1934    1.1277 C   0  0  0  0  0  0  0  0  0  0  0  0
  1  2  1  0
  2  3  1  0
  3  4  1  0
  5  4  1  1
  5  6  1  0
  6  7  1  0
  7  8  1  0
  8  9  1  1
  8 10  1  0
 10 11  1  0
  2 12  1  0
 12 13  2  0
 12 14  1  0
 14 15  1  0
 15 16  1  0
 16 17  2  0
 16 18  1  0
 18 19  1  0
 19 20  1  0
 19 21  1  0
 19 22  1  0
 11  5  1  0
M  END
