
     RDKit          3D

 40 43  0  0  0  0  0  0  0  0999 V2000
  -31.2037   11.1841    6.4190 O   0  0  0  0  0  0  0  0  0  0  0  0
  -31.9756   11.1763    7.3669 C   0  0  0  0  0  0  0  0  0  0  0  0
  -31.8073   10.5727    8.5818 N   0  0  0  0  0  0  0  0  0  0  0  0
  -30.7825    9.7002    8.9795 C   0  0  0  0  0  0  0  0  0  0  0  0
  -29.8731    9.1365    8.0849 C   0  0  0  0  0  0  0  0  0  0  0  0
  -28.8901    8.2553    8.5365 C   0  0  0  0  0  0  0  0  0  0  0  0
  -28.7806    7.9701    9.8993 C   0  0  0  0  0  0  0  0  0  0  0  0
  -27.4970    6.8715   10.4652 S   0  0  0  0  0  0  0  0  0  0  0  0
  -27.8275    6.4866   11.8222 O   0  0  0  0  0  0  0  0  0  0  0  0
  -27.2893    5.8706    9.4392 O   0  0  0  0  0  0  0  0  0  0  0  0
  -26.1273    7.8684   10.5860 N   0  0  0  0  0  0  0  0  0  0  0  0
  -25.7710    8.6478    9.4482 C   0  0  0  0  0  0  0  0  0  0  0  0
  -26.0008   10.0242    9.4702 C   0  0  0  0  0  0  0  0  0  0  0  0
  -25.8704   10.7667    8.2944 C   0  0  0  0  0  0  0  0  0  0  0  0
  -25.5168   10.1419    7.0886 C   0  0  0  0  0  0  0  0  0  0  0  0
  -25.4703   10.9157    5.7892 C   0  0  0  0  0  0  0  0  0  0  0  0
  -26.7623   11.6848    5.4430 C   0  0  0  0  0  0  0  0  0  0  0  0
  -27.9610   10.8393    5.4014 N   0  0  0  0  0  0  0  0  0  0  0  0
  -28.4421   10.5614    4.0416 C   0  0  0  0  0  0  0  0  0  0  0  0
  -27.5731    9.6277    3.1620 C   0  0  2  0  0  0  0  0  0  0  0  0
  -28.2277    9.4864    1.8931 O   0  0  0  0  0  0  0  0  0  0  0  0
  -27.2686    8.2558    3.7213 C   0  0  0  0  0  0  0  0  0  0  0  0
  -28.0911    7.5819    4.6292 C   0  0  0  0  0  0  0  0  0  0  0  0
  -27.7272    6.3200    5.0935 C   0  0  0  0  0  0  0  0  0  0  0  0
  -26.5571    5.7583    4.6205 C   0  0  0  0  0  0  0  0  0  0  0  0
  -25.7477    6.3609    3.7236 N   0  0  0  0  0  0  0  0  0  0  0  0
  -26.1214    7.5887    3.2989 C   0  0  0  0  0  0  0  0  0  0  0  0
  -25.2123    8.7731    7.1012 C   0  0  0  0  0  0  0  0  0  0  0  0
  -25.3398    8.0298    8.2764 C   0  0  0  0  0  0  0  0  0  0  0  0
  -29.7003    8.5025   10.8019 C   0  0  0  0  0  0  0  0  0  0  0  0
  -30.7083    9.3571   10.3364 C   0  0  0  0  0  0  0  0  0  0  0  0
  -33.1766   11.8110    7.3776 O   0  0  0  0  0  0  0  0  0  0  0  0
  -33.5721   12.4380    6.1457 C   0  0  0  0  0  0  0  0  0  0  0  0
  -34.0117   11.4204    5.0886 C   0  0  0  0  0  0  0  0  0  0  0  0
  -35.1377   10.5218    5.5381 C   0  0  0  0  0  0  0  0  0  0  0  0
  -34.9375    9.1350    5.6156 C   0  0  0  0  0  0  0  0  0  0  0  0
  -35.9812    8.2900    5.9984 C   0  0  0  0  0  0  0  0  0  0  0  0
  -37.2268    8.8234    6.3185 C   0  0  0  0  0  0  0  0  0  0  0  0
  -37.4361   10.1984    6.2475 C   0  0  0  0  0  0  0  0  0  0  0  0
  -36.3970   11.0456    5.8548 C   0  0  0  0  0  0  0  0  0  0  0  0
  1  2  2  0
  2  3  1  0
  3  4  1  0
  4  5  1  0
  5  6  2  0
  6  7  1  0
  7  8  1  0
  8  9  2  0
  8 10  2  0
  8 11  1  0
 11 12  1  0
 12 13  1  0
 13 14  2  0
 14 15  1  0
 15 16  1  0
 16 17  1  0
 17 18  1  0
 18 19  1  0
 19 20  1  0
 20 21  1  6
 20 22  1  0
 22 23  2  0
 23 24  1  0
 24 25  2  0
 25 26  1  0
 26 27  2  0
 15 28  2  0
 28 29  1  0
  7 30  2  0
 30 31  1  0
  2 32  1  0
 32 33  1  0
 33 34  1  0
 34 35  1  0
 35 36  2  0
 36 37  1  0
 37 38  2  0
 38 39  1  0
 39 40  2  0
 31  4  2  0
 40 35  1  0
 29 12  2  0
 27 22  1  0
M  END
$$$$
