
     RDKit          3D

 25 27  0  0  0  0  0  0  0  0999 V2000
    3.1409  -20.6950   10.6509 C   0  0  0  0  0  0  0  0  0  0  0  0
    3.4119  -19.2120   10.8612 C   0  0  0  0  0  0  0  0  0  0  0  0
    2.7410  -18.6370   12.1146 C   0  0  0  0  0  0  0  0  0  0  0  0
    1.4265  -18.0128   11.9771 N   0  0  0  0  0  0  0  0  0  0  0  0
    0.3146  -18.8794   11.6131 C   0  0  0  0  0  0  0  0  0  0  0  0
   -0.0341  -18.8679   10.1273 C   0  0  0  0  0  0  0  0  0  0  0  0
   -0.2382  -17.4502    9.6123 C   0  0  0  0  0  0  0  0  0  0  0  0
    1.0000  -16.5870    9.9058 C   0  0  0  0  0  0  0  0  0  0  0  0
    0.7656  -15.1610    9.4267 C   0  0  0  0  0  0  0  0  0  0  0  0
    0.7872  -14.9011    8.0452 C   0  0  0  0  0  0  0  0  0  0  0  0
    0.5840  -13.6134    7.5556 C   0  0  0  0  0  0  0  0  0  0  0  0
    0.3392  -12.5660    8.4373 C   0  0  0  0  0  0  0  0  0  0  0  0
    0.2788  -12.8134    9.8088 C   0  0  0  0  0  0  0  0  0  0  0  0
    0.0554  -11.7986   10.7057 O   0  0  0  0  0  0  0  0  0  0  0  0
   -1.2797  -10.8481   10.6143 S   0  0  0  0  0  0  0  0  0  0  0  0
   -1.3442  -10.1069   11.8667 O   0  0  0  0  0  0  0  0  0  0  0  0
   -1.2461  -10.1058    9.3624 O   0  0  0  0  0  0  0  0  0  0  0  0
   -2.6050  -12.1287   10.5863 C   0  0  0  0  0  0  0  0  0  0  0  0
   -2.6647  -12.8124    9.4076 F   0  0  0  0  0  0  0  0  0  0  0  0
   -2.4553  -13.0604   11.5721 F   0  0  0  0  0  0  0  0  0  0  0  0
   -3.8434  -11.5806   10.7665 F   0  0  0  0  0  0  0  0  0  0  0  0
    0.5159  -14.1033   10.3230 C   0  0  0  0  0  0  0  0  0  0  0  0
    0.5880  -14.3189   11.8171 C   0  0  0  0  0  0  0  0  0  0  0  0
    0.4764  -15.7792   12.2435 C   0  0  0  0  0  0  0  0  0  0  0  0
    1.4105  -16.6610   11.3990 C   0  0  0  0  0  0  0  0  0  0  0  0
  1  2  1  0
  2  3  1  0
  3  4  1  0
  4  5  1  0
  5  6  1  0
  6  7  1  0
  7  8  1  0
  8  9  1  0
  9 10  2  0
 10 11  1  0
 11 12  2  0
 12 13  1  0
 13 14  1  0
 14 15  1  0
 15 16  2  0
 15 17  2  0
 15 18  1  0
 18 19  1  0
 18 20  1  0
 18 21  1  0
 13 22  2  0
 22 23  1  0
 23 24  1  0
 24 25  1  0
 25  4  1  0
 25  8  1  0
 22  9  1  0
M  END
$$$$
