
     RDKit          3D

 23 26  0  0  0  0  0  0  0  0999 V2000
   -2.3380  -12.9139   10.6718 Cl  0  0  0  0  0  0  0  0  0  0  0  0
   -0.9035  -12.1881   10.0115 C   0  0  0  0  0  0  0  0  0  0  0  0
   -1.0564  -10.9599    9.3653 C   0  0  0  0  0  0  0  0  0  0  0  0
    0.0391  -10.3040    8.8084 C   0  0  0  0  0  0  0  0  0  0  0  0
    1.2845  -10.9280    8.9160 C   0  0  0  0  0  0  0  0  0  0  0  0
    2.5120  -10.5080    8.4514 N   0  0  0  0  0  0  0  0  0  0  0  0
    3.4743  -11.4308    8.7513 C   0  0  0  0  0  0  0  0  0  0  0  0
    2.8646  -12.4611    9.4274 C   0  0  0  0  0  0  0  0  0  0  0  0
    1.4725  -12.1580    9.5550 C   0  0  0  0  0  0  0  0  0  0  0  0
    0.3589  -12.8292   10.1410 C   0  0  0  0  0  0  0  0  0  0  0  0
    0.4415  -14.0650   10.8157 N   0  0  0  0  0  0  0  0  0  0  0  0
    1.3017  -14.0848   12.0042 C   0  0  0  0  0  0  0  0  0  0  0  0
    1.0225  -15.3644   12.8412 C   0  0  0  0  0  0  0  0  0  0  0  0
    0.6693  -16.5987   12.0859 N   0  0  0  0  0  0  0  0  0  0  0  0
   -0.7932  -16.8095   12.1458 C   0  0  0  0  0  0  0  0  0  0  0  0
   -1.2526  -18.0966   11.4902 C   0  0  0  0  0  0  0  0  0  0  0  0
   -0.7431  -19.3344   11.9101 C   0  0  0  0  0  0  0  0  0  0  0  0
   -1.1751  -20.5191   11.3124 C   0  0  0  0  0  0  0  0  0  0  0  0
   -2.1238  -20.4795   10.2922 C   0  0  0  0  0  0  0  0  0  0  0  0
   -2.6416  -19.2563    9.8694 C   0  0  0  0  0  0  0  0  0  0  0  0
   -2.2102  -18.0702   10.4659 C   0  0  0  0  0  0  0  0  0  0  0  0
    1.1416  -16.4609   10.6874 C   0  0  0  0  0  0  0  0  0  0  0  0
    0.6101  -15.2236    9.9164 C   0  0  0  0  0  0  0  0  0  0  0  0
  1  2  1  0
  2  3  2  0
  3  4  1  0
  4  5  2  0
  5  6  1  0
  6  7  1  0
  7  8  2  0
  8  9  1  0
  9 10  2  0
 10 11  1  0
 11 12  1  0
 12 13  1  0
 13 14  1  0
 14 15  1  0
 15 16  1  0
 16 17  2  0
 17 18  1  0
 18 19  2  0
 19 20  1  0
 20 21  2  0
 14 22  1  0
 22 23  1  0
 10  2  1  0
 23 11  1  0
  9  5  1  0
 21 16  1  0
M  END
$$$$
